*SPEF "ieee 1481-1999"
*DESIGN "zero_to_five_counter"
*DATE "01:03:02 Friday May 23, 2025"
*VENDOR "The OpenROAD Project"
*PROGRAM "OpenROAD"
*VERSION "b16bda7e82721d10566ff7e2b68f1ff0be9f9e38"
*DESIGN_FLOW "NAME_SCOPE LOCAL" "PIN_CAP NONE"
*DIVIDER /
*DELIMITER :
*BUS_DELIMITER []
*T_UNIT 1 NS
*C_UNIT 1 PF
*R_UNIT 1 OHM
*L_UNIT 1 HENRY

*NAME_MAP
*3 clk
*4 count[0]
*5 count[1]
*6 count[2]
*7 reset
*8 _000_
*9 _001_
*10 _002_
*11 _003_
*12 _004_
*13 _005_
*14 _006_
*15 _007_
*16 _008_
*17 _009_
*18 _010_
*19 _011_
*20 _012_
*21 _013_
*22 _014_
*23 _015_
*24 _016_
*25 _017_
*26 _018_
*27 _019_
*28 _020_
*29 _021_
*30 _022_
*31 _023_
*32 _024_
*33 _025_
*34 _026_
*35 _027_
*36 _028_
*37 _029_
*38 _030_
*39 _031_
*40 _032_
*41 _033_
*42 _034_
*43 _035_
*44 _036_
*45 _037_
*46 _038_
*47 _039_
*48 _040_
*49 _041_
*50 _042_
*51 _043_
*52 _044_
*53 _045_
*54 _046_
*55 _047_
*56 _048_
*57 _049_
*58 _050_
*59 _051_
*60 _052_
*61 _053_
*62 _054_
*63 _055_
*64 _056_
*65 _057_
*66 _058_
*67 _059_
*68 _060_
*69 _061_
*70 _062_
*71 _063_
*72 _064_
*73 _065_
*74 _066_
*75 _067_
*76 _068_
*77 _069_
*78 _070_
*79 _071_
*80 _072_
*81 _073_
*82 _074_
*83 _075_
*84 _076_
*85 _077_
*86 _078_
*87 _079_
*88 _080_
*89 _081_
*90 _082_
*91 _083_
*92 _084_
*93 _085_
*94 _086_
*95 _087_
*96 _088_
*97 _089_
*98 _090_
*99 _091_
*100 _092_
*101 _093_
*102 _094_
*103 _095_
*104 _096_
*105 _097_
*106 _098_
*107 _099_
*108 _100_
*109 _101_
*110 _102_
*111 _103_
*112 _104_
*113 _105_
*114 _106_
*115 _107_
*116 _108_
*117 _109_
*118 _110_
*119 _111_
*120 _112_
*121 _113_
*122 _114_
*123 _115_
*124 _116_
*125 _117_
*126 _118_
*127 _119_
*128 _120_
*129 _121_
*130 _122_
*131 _123_
*132 _124_
*133 _125_
*134 _126_
*135 _127_
*136 _128_
*137 _129_
*138 _130_
*139 _131_
*140 _132_
*141 _133_
*142 _134_
*143 _135_
*144 _136_
*145 _137_
*146 _138_
*147 _139_
*148 _140_
*149 _141_
*150 _142_
*151 _143_
*152 _144_
*153 _145_
*154 _146_
*155 _147_
*156 _148_
*157 _149_
*158 _150_
*159 _151_
*160 _152_
*161 _153_
*162 _154_
*163 _155_
*164 _156_
*165 _157_
*166 _158_
*167 _159_
*168 _160_
*169 _161_
*170 _162_
*171 _163_
*172 clknet_0_clk
*173 clknet_2_0__leaf_clk
*174 clknet_2_1__leaf_clk
*175 clknet_2_2__leaf_clk
*176 clknet_2_3__leaf_clk
*177 net1
*178 net2
*179 net3
*180 one_second_counter\[0\]
*181 one_second_counter\[10\]
*182 one_second_counter\[11\]
*183 one_second_counter\[12\]
*184 one_second_counter\[13\]
*185 one_second_counter\[14\]
*186 one_second_counter\[15\]
*187 one_second_counter\[16\]
*188 one_second_counter\[17\]
*189 one_second_counter\[18\]
*190 one_second_counter\[19\]
*191 one_second_counter\[1\]
*192 one_second_counter\[20\]
*193 one_second_counter\[21\]
*194 one_second_counter\[22\]
*195 one_second_counter\[23\]
*196 one_second_counter\[24\]
*197 one_second_counter\[25\]
*198 one_second_counter\[26\]
*199 one_second_counter\[2\]
*200 one_second_counter\[3\]
*201 one_second_counter\[4\]
*202 one_second_counter\[5\]
*203 one_second_counter\[6\]
*204 one_second_counter\[7\]
*205 one_second_counter\[8\]
*206 one_second_counter\[9\]
*207 FILLER_0_0_101
*208 FILLER_0_0_110
*209 FILLER_0_0_113
*210 FILLER_0_0_15
*211 FILLER_0_0_27
*212 FILLER_0_0_29
*213 FILLER_0_0_3
*214 FILLER_0_0_41
*215 FILLER_0_0_53
*216 FILLER_0_0_83
*217 FILLER_0_0_85
*218 FILLER_0_0_97
*219 FILLER_0_10_103
*220 FILLER_0_10_11
*221 FILLER_0_10_18
*222 FILLER_0_10_22
*223 FILLER_0_10_29
*224 FILLER_0_10_3
*225 FILLER_0_10_41
*226 FILLER_0_10_53
*227 FILLER_0_10_60
*228 FILLER_0_10_72
*229 FILLER_0_10_85
*230 FILLER_0_10_91
*231 FILLER_0_11_105
*232 FILLER_0_11_111
*233 FILLER_0_11_113
*234 FILLER_0_11_12
*235 FILLER_0_11_24
*236 FILLER_0_11_3
*237 FILLER_0_11_54
*238 FILLER_0_11_57
*239 FILLER_0_11_69
*240 FILLER_0_11_84
*241 FILLER_0_11_92
*242 FILLER_0_11_97
*243 FILLER_0_12_109
*244 FILLER_0_12_12
*245 FILLER_0_12_121
*246 FILLER_0_12_20
*247 FILLER_0_12_25
*248 FILLER_0_12_29
*249 FILLER_0_12_3
*250 FILLER_0_12_35
*251 FILLER_0_12_43
*252 FILLER_0_12_73
*253 FILLER_0_12_78
*254 FILLER_0_12_85
*255 FILLER_0_12_97
*256 FILLER_0_13_102
*257 FILLER_0_13_110
*258 FILLER_0_13_113
*259 FILLER_0_13_12
*260 FILLER_0_13_3
*261 FILLER_0_13_37
*262 FILLER_0_13_45
*263 FILLER_0_13_52
*264 FILLER_0_13_57
*265 FILLER_0_13_69
*266 FILLER_0_13_78
*267 FILLER_0_13_90
*268 FILLER_0_14_105
*269 FILLER_0_14_115
*270 FILLER_0_14_121
*271 FILLER_0_14_15
*272 FILLER_0_14_27
*273 FILLER_0_14_29
*274 FILLER_0_14_3
*275 FILLER_0_14_85
*276 FILLER_0_14_97
*277 FILLER_0_15_106
*278 FILLER_0_15_11
*279 FILLER_0_15_113
*280 FILLER_0_15_19
*281 FILLER_0_15_23
*282 FILLER_0_15_3
*283 FILLER_0_15_45
*284 FILLER_0_15_53
*285 FILLER_0_15_57
*286 FILLER_0_15_61
*287 FILLER_0_15_7
*288 FILLER_0_15_82
*289 FILLER_0_15_94
*290 FILLER_0_16_101
*291 FILLER_0_16_107
*292 FILLER_0_16_119
*293 FILLER_0_16_15
*294 FILLER_0_16_27
*295 FILLER_0_16_29
*296 FILLER_0_16_3
*297 FILLER_0_16_37
*298 FILLER_0_16_48
*299 FILLER_0_16_60
*300 FILLER_0_16_85
*301 FILLER_0_16_97
*302 FILLER_0_17_105
*303 FILLER_0_17_111
*304 FILLER_0_17_113
*305 FILLER_0_17_14
*306 FILLER_0_17_22
*307 FILLER_0_17_28
*308 FILLER_0_17_3
*309 FILLER_0_17_40
*310 FILLER_0_17_52
*311 FILLER_0_17_65
*312 FILLER_0_17_77
*313 FILLER_0_17_85
*314 FILLER_0_17_93
*315 FILLER_0_18_15
*316 FILLER_0_18_27
*317 FILLER_0_18_29
*318 FILLER_0_18_3
*319 FILLER_0_18_46
*320 FILLER_0_18_58
*321 FILLER_0_18_70
*322 FILLER_0_18_82
*323 FILLER_0_18_85
*324 FILLER_0_18_99
*325 FILLER_0_19_110
*326 FILLER_0_19_113
*327 FILLER_0_19_117
*328 FILLER_0_19_121
*329 FILLER_0_19_14
*330 FILLER_0_19_28
*331 FILLER_0_19_47
*332 FILLER_0_19_54
*333 FILLER_0_19_62
*334 FILLER_0_19_74
*335 FILLER_0_19_82
*336 FILLER_0_19_9
*337 FILLER_0_1_107
*338 FILLER_0_1_111
*339 FILLER_0_1_113
*340 FILLER_0_1_15
*341 FILLER_0_1_26
*342 FILLER_0_1_3
*343 FILLER_0_1_38
*344 FILLER_0_1_50
*345 FILLER_0_1_77
*346 FILLER_0_1_89
*347 FILLER_0_1_97
*348 FILLER_0_20_119
*349 FILLER_0_20_29
*350 FILLER_0_20_3
*351 FILLER_0_20_35
*352 FILLER_0_20_42
*353 FILLER_0_20_46
*354 FILLER_0_20_67
*355 FILLER_0_20_7
*356 FILLER_0_20_79
*357 FILLER_0_20_92
*358 FILLER_0_21_101
*359 FILLER_0_21_113
*360 FILLER_0_21_16
*361 FILLER_0_21_28
*362 FILLER_0_21_3
*363 FILLER_0_21_40
*364 FILLER_0_21_52
*365 FILLER_0_21_71
*366 FILLER_0_21_77
*367 FILLER_0_22_109
*368 FILLER_0_22_117
*369 FILLER_0_22_122
*370 FILLER_0_22_16
*371 FILLER_0_22_20
*372 FILLER_0_22_3
*373 FILLER_0_22_35
*374 FILLER_0_22_43
*375 FILLER_0_22_56
*376 FILLER_0_22_63
*377 FILLER_0_22_68
*378 FILLER_0_22_77
*379 FILLER_0_22_8
*380 FILLER_0_22_83
*381 FILLER_0_23_106
*382 FILLER_0_23_113
*383 FILLER_0_23_121
*384 FILLER_0_23_15
*385 FILLER_0_23_27
*386 FILLER_0_23_3
*387 FILLER_0_23_34
*388 FILLER_0_23_42
*389 FILLER_0_23_77
*390 FILLER_0_24_106
*391 FILLER_0_24_110
*392 FILLER_0_24_18
*393 FILLER_0_24_26
*394 FILLER_0_24_36
*395 FILLER_0_24_48
*396 FILLER_0_24_56
*397 FILLER_0_24_6
*398 FILLER_0_24_60
*399 FILLER_0_24_68
*400 FILLER_0_24_72
*401 FILLER_0_25_105
*402 FILLER_0_25_111
*403 FILLER_0_25_116
*404 FILLER_0_25_124
*405 FILLER_0_25_15
*406 FILLER_0_25_27
*407 FILLER_0_25_3
*408 FILLER_0_25_39
*409 FILLER_0_25_45
*410 FILLER_0_25_54
*411 FILLER_0_25_57
*412 FILLER_0_25_69
*413 FILLER_0_25_81
*414 FILLER_0_25_89
*415 FILLER_0_25_93
*416 FILLER_0_26_103
*417 FILLER_0_26_118
*418 FILLER_0_26_15
*419 FILLER_0_26_27
*420 FILLER_0_26_29
*421 FILLER_0_26_3
*422 FILLER_0_26_41
*423 FILLER_0_26_53
*424 FILLER_0_26_65
*425 FILLER_0_26_69
*426 FILLER_0_26_73
*427 FILLER_0_26_81
*428 FILLER_0_26_85
*429 FILLER_0_26_89
*430 FILLER_0_26_97
*431 FILLER_0_27_107
*432 FILLER_0_27_111
*433 FILLER_0_27_121
*434 FILLER_0_27_16
*435 FILLER_0_27_25
*436 FILLER_0_27_3
*437 FILLER_0_27_37
*438 FILLER_0_27_52
*439 FILLER_0_27_60
*440 FILLER_0_27_83
*441 FILLER_0_27_9
*442 FILLER_0_27_95
*443 FILLER_0_28_109
*444 FILLER_0_28_11
*445 FILLER_0_28_121
*446 FILLER_0_28_17
*447 FILLER_0_28_25
*448 FILLER_0_28_29
*449 FILLER_0_28_3
*450 FILLER_0_28_37
*451 FILLER_0_28_47
*452 FILLER_0_28_79
*453 FILLER_0_28_83
*454 FILLER_0_28_85
*455 FILLER_0_28_97
*456 FILLER_0_29_102
*457 FILLER_0_29_110
*458 FILLER_0_29_113
*459 FILLER_0_29_15
*460 FILLER_0_29_27
*461 FILLER_0_29_3
*462 FILLER_0_29_31
*463 FILLER_0_29_52
*464 FILLER_0_29_57
*465 FILLER_0_2_11
*466 FILLER_0_2_120
*467 FILLER_0_2_124
*468 FILLER_0_2_23
*469 FILLER_0_2_27
*470 FILLER_0_2_37
*471 FILLER_0_2_49
*472 FILLER_0_2_57
*473 FILLER_0_2_63
*474 FILLER_0_2_71
*475 FILLER_0_2_75
*476 FILLER_0_2_83
*477 FILLER_0_2_91
*478 FILLER_0_30_109
*479 FILLER_0_30_11
*480 FILLER_0_30_121
*481 FILLER_0_30_24
*482 FILLER_0_30_52
*483 FILLER_0_30_83
*484 FILLER_0_30_85
*485 FILLER_0_30_97
*486 FILLER_0_31_106
*487 FILLER_0_31_113
*488 FILLER_0_31_15
*489 FILLER_0_31_27
*490 FILLER_0_31_29
*491 FILLER_0_31_3
*492 FILLER_0_31_35
*493 FILLER_0_31_49
*494 FILLER_0_31_55
*495 FILLER_0_31_57
*496 FILLER_0_31_61
*497 FILLER_0_31_69
*498 FILLER_0_31_81
*499 FILLER_0_31_85
*500 FILLER_0_31_97
*501 FILLER_0_3_113
*502 FILLER_0_3_121
*503 FILLER_0_3_23
*504 FILLER_0_3_3
*505 FILLER_0_3_35
*506 FILLER_0_3_47
*507 FILLER_0_3_55
*508 FILLER_0_3_57
*509 FILLER_0_4_110
*510 FILLER_0_4_122
*511 FILLER_0_4_15
*512 FILLER_0_4_19
*513 FILLER_0_4_23
*514 FILLER_0_4_27
*515 FILLER_0_4_3
*516 FILLER_0_4_36
*517 FILLER_0_4_63
*518 FILLER_0_4_74
*519 FILLER_0_4_78
*520 FILLER_0_5_103
*521 FILLER_0_5_110
*522 FILLER_0_5_118
*523 FILLER_0_5_124
*524 FILLER_0_5_18
*525 FILLER_0_5_24
*526 FILLER_0_5_36
*527 FILLER_0_5_48
*528 FILLER_0_5_6
*529 FILLER_0_5_60
*530 FILLER_0_5_72
*531 FILLER_0_5_97
*532 FILLER_0_6_10
*533 FILLER_0_6_103
*534 FILLER_0_6_124
*535 FILLER_0_6_22
*536 FILLER_0_6_29
*537 FILLER_0_6_37
*538 FILLER_0_6_49
*539 FILLER_0_6_61
*540 FILLER_0_6_72
*541 FILLER_0_6_85
*542 FILLER_0_6_97
*543 FILLER_0_7_111
*544 FILLER_0_7_113
*545 FILLER_0_7_3
*546 FILLER_0_7_30
*547 FILLER_0_7_42
*548 FILLER_0_7_53
*549 FILLER_0_7_57
*550 FILLER_0_7_73
*551 FILLER_0_7_85
*552 FILLER_0_7_93
*553 FILLER_0_7_99
*554 FILLER_0_8_110
*555 FILLER_0_8_122
*556 FILLER_0_8_15
*557 FILLER_0_8_27
*558 FILLER_0_8_29
*559 FILLER_0_8_3
*560 FILLER_0_8_33
*561 FILLER_0_8_65
*562 FILLER_0_8_77
*563 FILLER_0_8_83
*564 FILLER_0_8_9
*565 FILLER_0_9_107
*566 FILLER_0_9_111
*567 FILLER_0_9_113
*568 FILLER_0_9_121
*569 FILLER_0_9_14
*570 FILLER_0_9_26
*571 FILLER_0_9_3
*572 FILLER_0_9_38
*573 FILLER_0_9_42
*574 FILLER_0_9_54
*575 FILLER_0_9_62
*576 PHY_EDGE_ROW_0_Left_32
*577 PHY_EDGE_ROW_0_Right_0
*578 PHY_EDGE_ROW_10_Left_42
*579 PHY_EDGE_ROW_10_Right_10
*580 PHY_EDGE_ROW_11_Left_43
*581 PHY_EDGE_ROW_11_Right_11
*582 PHY_EDGE_ROW_12_Left_44
*583 PHY_EDGE_ROW_12_Right_12
*584 PHY_EDGE_ROW_13_Left_45
*585 PHY_EDGE_ROW_13_Right_13
*586 PHY_EDGE_ROW_14_Left_46
*587 PHY_EDGE_ROW_14_Right_14
*588 PHY_EDGE_ROW_15_Left_47
*589 PHY_EDGE_ROW_15_Right_15
*590 PHY_EDGE_ROW_16_Left_48
*591 PHY_EDGE_ROW_16_Right_16
*592 PHY_EDGE_ROW_17_Left_49
*593 PHY_EDGE_ROW_17_Right_17
*594 PHY_EDGE_ROW_18_Left_50
*595 PHY_EDGE_ROW_18_Right_18
*596 PHY_EDGE_ROW_19_Left_51
*597 PHY_EDGE_ROW_19_Right_19
*598 PHY_EDGE_ROW_1_Left_33
*599 PHY_EDGE_ROW_1_Right_1
*600 PHY_EDGE_ROW_20_Left_52
*601 PHY_EDGE_ROW_20_Right_20
*602 PHY_EDGE_ROW_21_Left_53
*603 PHY_EDGE_ROW_21_Right_21
*604 PHY_EDGE_ROW_22_Left_54
*605 PHY_EDGE_ROW_22_Right_22
*606 PHY_EDGE_ROW_23_Left_55
*607 PHY_EDGE_ROW_23_Right_23
*608 PHY_EDGE_ROW_24_Left_56
*609 PHY_EDGE_ROW_24_Right_24
*610 PHY_EDGE_ROW_25_Left_57
*611 PHY_EDGE_ROW_25_Right_25
*612 PHY_EDGE_ROW_26_Left_58
*613 PHY_EDGE_ROW_26_Right_26
*614 PHY_EDGE_ROW_27_Left_59
*615 PHY_EDGE_ROW_27_Right_27
*616 PHY_EDGE_ROW_28_Left_60
*617 PHY_EDGE_ROW_28_Right_28
*618 PHY_EDGE_ROW_29_Left_61
*619 PHY_EDGE_ROW_29_Right_29
*620 PHY_EDGE_ROW_2_Left_34
*621 PHY_EDGE_ROW_2_Right_2
*622 PHY_EDGE_ROW_30_Left_62
*623 PHY_EDGE_ROW_30_Right_30
*624 PHY_EDGE_ROW_31_Left_63
*625 PHY_EDGE_ROW_31_Right_31
*626 PHY_EDGE_ROW_3_Left_35
*627 PHY_EDGE_ROW_3_Right_3
*628 PHY_EDGE_ROW_4_Left_36
*629 PHY_EDGE_ROW_4_Right_4
*630 PHY_EDGE_ROW_5_Left_37
*631 PHY_EDGE_ROW_5_Right_5
*632 PHY_EDGE_ROW_6_Left_38
*633 PHY_EDGE_ROW_6_Right_6
*634 PHY_EDGE_ROW_7_Left_39
*635 PHY_EDGE_ROW_7_Right_7
*636 PHY_EDGE_ROW_8_Left_40
*637 PHY_EDGE_ROW_8_Right_8
*638 PHY_EDGE_ROW_9_Left_41
*639 PHY_EDGE_ROW_9_Right_9
*640 TAP_TAPCELL_ROW_0_64
*641 TAP_TAPCELL_ROW_0_65
*642 TAP_TAPCELL_ROW_0_66
*643 TAP_TAPCELL_ROW_0_67
*644 TAP_TAPCELL_ROW_10_86
*645 TAP_TAPCELL_ROW_10_87
*646 TAP_TAPCELL_ROW_11_88
*647 TAP_TAPCELL_ROW_11_89
*648 TAP_TAPCELL_ROW_12_90
*649 TAP_TAPCELL_ROW_12_91
*650 TAP_TAPCELL_ROW_13_92
*651 TAP_TAPCELL_ROW_13_93
*652 TAP_TAPCELL_ROW_14_94
*653 TAP_TAPCELL_ROW_14_95
*654 TAP_TAPCELL_ROW_15_96
*655 TAP_TAPCELL_ROW_15_97
*656 TAP_TAPCELL_ROW_16_98
*657 TAP_TAPCELL_ROW_16_99
*658 TAP_TAPCELL_ROW_17_100
*659 TAP_TAPCELL_ROW_17_101
*660 TAP_TAPCELL_ROW_18_102
*661 TAP_TAPCELL_ROW_18_103
*662 TAP_TAPCELL_ROW_19_104
*663 TAP_TAPCELL_ROW_19_105
*664 TAP_TAPCELL_ROW_1_68
*665 TAP_TAPCELL_ROW_1_69
*666 TAP_TAPCELL_ROW_20_106
*667 TAP_TAPCELL_ROW_20_107
*668 TAP_TAPCELL_ROW_21_108
*669 TAP_TAPCELL_ROW_21_109
*670 TAP_TAPCELL_ROW_22_110
*671 TAP_TAPCELL_ROW_22_111
*672 TAP_TAPCELL_ROW_23_112
*673 TAP_TAPCELL_ROW_23_113
*674 TAP_TAPCELL_ROW_24_114
*675 TAP_TAPCELL_ROW_24_115
*676 TAP_TAPCELL_ROW_25_116
*677 TAP_TAPCELL_ROW_25_117
*678 TAP_TAPCELL_ROW_26_118
*679 TAP_TAPCELL_ROW_26_119
*680 TAP_TAPCELL_ROW_27_120
*681 TAP_TAPCELL_ROW_27_121
*682 TAP_TAPCELL_ROW_28_122
*683 TAP_TAPCELL_ROW_28_123
*684 TAP_TAPCELL_ROW_29_124
*685 TAP_TAPCELL_ROW_29_125
*686 TAP_TAPCELL_ROW_2_70
*687 TAP_TAPCELL_ROW_2_71
*688 TAP_TAPCELL_ROW_30_126
*689 TAP_TAPCELL_ROW_30_127
*690 TAP_TAPCELL_ROW_31_128
*691 TAP_TAPCELL_ROW_31_129
*692 TAP_TAPCELL_ROW_31_130
*693 TAP_TAPCELL_ROW_31_131
*694 TAP_TAPCELL_ROW_3_72
*695 TAP_TAPCELL_ROW_3_73
*696 TAP_TAPCELL_ROW_4_74
*697 TAP_TAPCELL_ROW_4_75
*698 TAP_TAPCELL_ROW_5_76
*699 TAP_TAPCELL_ROW_5_77
*700 TAP_TAPCELL_ROW_6_78
*701 TAP_TAPCELL_ROW_6_79
*702 TAP_TAPCELL_ROW_7_80
*703 TAP_TAPCELL_ROW_7_81
*704 TAP_TAPCELL_ROW_8_82
*705 TAP_TAPCELL_ROW_8_83
*706 TAP_TAPCELL_ROW_9_84
*707 TAP_TAPCELL_ROW_9_85
*708 _164_
*709 _165_
*710 _166_
*711 _167_
*712 _168_
*713 _169_
*714 _170_
*715 _171_
*716 _172_
*717 _173_
*718 _174_
*719 _175_
*720 _176_
*721 _177_
*722 _178_
*723 _179_
*724 _180_
*725 _181_
*726 _182_
*727 _183_
*728 _184_
*729 _185_
*730 _186_
*731 _187_
*732 _188_
*733 _189_
*734 _190_
*735 _191_
*736 _192_
*737 _193_
*738 _194_
*739 _195_
*740 _196_
*741 _197_
*742 _198_
*743 _199_
*744 _200_
*745 _201_
*746 _202_
*747 _203_
*748 _204_
*749 _205_
*750 _206_
*751 _207_
*752 _208_
*753 _209_
*754 _210_
*755 _211_
*756 _212_
*757 _213_
*758 _214_
*759 _215_
*760 _216_
*761 _217_
*762 _218_
*763 _219_
*764 _220_
*765 _221_
*766 _222_
*767 _223_
*768 _224_
*769 _225_
*770 _226_
*771 _227_
*772 _228_
*773 _229_
*774 _230_
*775 _231_
*776 _232_
*777 _233_
*778 _234_
*779 _235_
*780 _236_
*781 _237_
*782 _238_
*783 _239_
*784 _240_
*785 _241_
*786 _242_
*787 _243_
*788 _244_
*789 _245_
*790 _246_
*791 _247_
*792 _248_
*793 _249_
*794 _250_
*795 _251_
*796 _252_
*797 _253_
*798 _254_
*799 _255_
*800 _256_
*801 _257_
*802 _258_
*803 _259_
*804 _260_
*805 _261_
*806 _262_
*807 _263_
*808 _264_
*809 _265_
*810 _266_
*811 _267_
*812 _268_
*813 _269_
*814 _270_
*815 _271_
*816 _272_
*817 _273_
*818 _274_
*819 _275_
*820 _276_
*821 _277_
*822 _278_
*823 _279_
*824 _280_
*825 _281_
*826 _282_
*827 _283_
*828 _284_
*829 _285_
*830 _286_
*831 _287_
*832 _288_
*833 _289_
*834 _290_
*835 _291_
*836 _292_
*837 _293_
*838 _294_
*839 _295_
*840 _296_
*841 _297_
*842 _298_
*843 _299_
*844 _300_
*845 _301_
*846 _302_
*847 _303_
*848 _304_
*849 _305_
*850 _306_
*851 _307_
*852 _308_
*853 _309_
*854 _310_
*855 _311_
*856 _312_
*857 _313_
*858 _314_
*859 _315_
*860 _316_
*861 _317_
*862 _318_
*863 _319_
*864 _320_
*865 _321_
*866 _322_
*867 _323_
*868 _324_
*869 _325_
*870 _326_
*871 _327_
*872 _328_
*873 _329_
*874 _330_
*875 _331_
*876 _332_
*877 _333_
*878 _334_
*879 _335_
*880 _336_
*881 _337_
*882 _338_
*883 _339_
*884 _340_
*885 _341_
*886 _342_
*887 _343_
*888 _344_
*889 _345_
*890 _346_
*891 _347_
*892 _348_
*893 _349_
*894 _350_
*895 _351_
*896 _352_
*897 _353_
*898 _354_
*899 _355_
*900 _356_
*901 _357_
*902 clkbuf_0_clk
*903 clkbuf_2_0__f_clk
*904 clkbuf_2_1__f_clk
*905 clkbuf_2_2__f_clk
*906 clkbuf_2_3__f_clk
*907 clkload0
*908 clkload1
*909 clkload2
*910 output1
*911 output2
*912 output3

*PORTS
clk I
count[0] O
count[1] O
count[2] O
reset I

*D_NET *3 0.00991207
*CONN
*P clk I
*I *902:A I *D sky130_fd_sc_hd__clkbuf_16
*CAP
1 clk 0.00309712
2 *902:A 0.00309712
3 *902:A *742:A 6.00634e-05
4 *902:A *761:A 0.000164344
5 *902:A *763:A 0
6 *902:A *807:C 0
7 *902:A *811:C 0.000107775
8 *902:A *827:C 0.00048629
9 *902:A *828:A 0.000327903
10 *902:A *836:A2 0.000164489
11 *902:A *877:RESET_B 2.67375e-05
12 *902:A *879:RESET_B 0.00020492
13 *902:A *885:RESET_B 9.33518e-05
14 *902:A *886:RESET_B 0
15 *902:A *891:CLK 0
16 *902:A *891:D 6.24785e-05
17 *902:A *898:D 0
18 *902:A *37:18 0.000292938
19 *902:A *76:24 0.00103948
20 *902:A *102:71 0.000120926
21 *902:A *128:10 0.000112534
22 *902:A *137:69 4.2906e-05
23 *902:A *165:60 0.000132326
24 *902:A *193:42 0.000201678
25 *902:A *202:49 7.66738e-05
*RES
1 clk *902:A 15.7662 
*END

*D_NET *4 0.000820357
*CONN
*P count[0] O
*I *910:X O *D sky130_fd_sc_hd__buf_1
*CAP
1 count[0] 0.000410179
2 *910:X 0.000410179
3 count[0] *34:20 0
*RES
1 *910:X count[0] 5.86677 
*END

*D_NET *5 0.000776864
*CONN
*P count[1] O
*I *911:X O *D sky130_fd_sc_hd__buf_1
*CAP
1 count[1] 0.000266577
2 *911:X 0.000266577
3 count[1] *34:20 0.000105991
4 count[1] *116:65 0.00013772
*RES
1 *911:X count[1] 7.40543 
*END

*D_NET *6 0.000756303
*CONN
*P count[2] O
*I *912:X O *D sky130_fd_sc_hd__buf_1
*CAP
1 count[2] 0.000378151
2 *912:X 0.000378151
3 count[2] *116:39 0
4 count[2] *206:25 0
*RES
1 *912:X count[2] 5.86677 
*END

*D_NET *7 0.0216276
*CONN
*P reset I
*I *850:A I *D sky130_fd_sc_hd__buf_4
*I *839:A I *D sky130_fd_sc_hd__buf_4
*I *861:A I *D sky130_fd_sc_hd__buf_4
*CAP
1 reset 0.00127229
2 *850:A 2.28262e-05
3 *839:A 0.00126802
4 *861:A 4.02658e-05
5 *7:64 0.0021634
6 *7:44 0.00198693
7 *7:17 0.00238128
8 *839:A *765:A 0.000196069
9 *839:A *779:B 0.000302175
10 *839:A *784:A 0.00015288
11 *839:A *788:A 0.000112534
12 *839:A *815:C 0.000587645
13 *839:A *901:CLK 0.000137199
14 *839:A *911:A 0.000326999
15 *839:A *161:8 0.000354859
16 *839:A *161:19 0.000292026
17 *839:A *163:64 0.000830523
18 *839:A *163:78 0.000298306
19 *839:A *178:10 0.000190238
20 *839:A *190:29 8.16597e-05
21 *839:A *198:61 0.00069373
22 *850:A *751:A_N 9.14098e-06
23 *850:A *175:17 1.03572e-05
24 *850:A *175:43 7.96104e-06
25 *861:A *726:B 9.98898e-05
26 *861:A *163:145 9.98898e-05
27 *7:17 *729:A 0.000180044
28 *7:17 *734:B1 0.000708207
29 *7:17 *766:B 0.000148616
30 *7:17 *890:D 0.000271325
31 *7:17 *890:RESET_B 0.00028035
32 *7:17 *896:RESET_B 5.06298e-05
33 *7:17 *97:12 0.00105504
34 *7:17 *123:12 0.000416063
35 *7:17 *168:18 8.50782e-05
36 *7:17 *195:18 0
37 *7:44 *734:B1 0.000479275
38 *7:44 *780:A 8.08116e-05
39 *7:44 *786:A1 0.000598863
40 *7:44 *799:C 1.60929e-05
41 *7:44 *886:RESET_B 0.000191352
42 *7:44 *890:D 3.92756e-05
43 *7:44 *890:RESET_B 9.79957e-06
44 *7:64 *732:B 3.96737e-05
45 *7:64 *751:A_N 9.68083e-06
46 *7:64 *769:A 7.98833e-05
47 *7:64 *786:A1 9.97142e-05
48 *7:64 *855:A 4.66622e-05
49 *7:64 *877:RESET_B 0.00017102
50 *7:64 *901:RESET_B 0.000223343
51 *7:64 *67:16 9.12448e-05
52 *7:64 *81:22 8.40269e-05
53 *7:64 *84:14 0.000663008
54 *7:64 *84:76 0.000262805
55 *7:64 *161:137 0.000154305
56 *7:64 *162:10 9.3e-05
57 *7:64 *175:43 1.66925e-05
58 *7:64 *177:97 0.00106262
*RES
1 reset *7:17 15.3557 
2 *7:17 *861:A 5.3525 
3 *7:17 *7:44 3.92693 
4 *7:44 *7:64 29.2175 
5 *7:64 *839:A 41.745 
6 *7:44 *850:A 4.0875 
*END

*D_NET *8 0.0126114
*CONN
*I *875:D I *D sky130_fd_sc_hd__dfrtp_4
*I *820:X O *D sky130_fd_sc_hd__clkbuf_1
*CAP
1 *875:D 0.00125798
2 *820:X 0.00177838
3 *8:28 0.00303636
4 *875:D *746:A 0.00025599
5 *875:D *750:A1 7.61237e-05
6 *875:D *770:B 0.000468812
7 *875:D *799:C 0.000287577
8 *875:D *803:C 4.12356e-05
9 *875:D *806:A 2.82759e-05
10 *875:D *844:A 0.000166266
11 *875:D *898:RESET_B 9.80559e-05
12 *875:D *29:28 0.000130095
13 *875:D *90:60 0.000126353
14 *875:D *158:32 0.000353777
15 *875:D *166:107 0.000396699
16 *875:D *175:71 0
17 *875:D *175:101 2.62338e-05
18 *875:D *205:24 1.35153e-05
19 *8:28 *726:B 0.000234207
20 *8:28 *770:B 3.05308e-05
21 *8:28 *771:A2 4.7003e-05
22 *8:28 *776:A 0.000342044
23 *8:28 *786:A2 4.22913e-05
24 *8:28 *794:B 0.000187206
25 *8:28 *800:A 0.00107117
26 *8:28 *873:RESET_B 3.90157e-05
27 *8:28 *890:D 0.000140676
28 *8:28 *29:28 0.000553956
29 *8:28 *70:25 0.000118081
30 *8:28 *76:24 4.12825e-05
31 *8:28 *90:30 1.19928e-05
32 *8:28 *108:8 4.83522e-05
33 *8:28 *108:22 0.000203292
34 *8:28 *122:27 0.000421304
35 *8:28 *160:22 7.03276e-05
36 *8:28 *162:26 0.000155608
37 *8:28 *162:85 0.000121043
38 *8:28 *182:39 3.96088e-05
39 *8:28 *201:43 0.000150692
*RES
1 *820:X *8:28 44.1925 
2 *8:28 *875:D 20.8224 
*END

*D_NET *9 0.000736027
*CONN
*I *885:D I *D sky130_fd_sc_hd__dfrtp_2
*I *756:X O *D sky130_fd_sc_hd__clkbuf_1
*CAP
1 *885:D 0.000232611
2 *756:X 0.000232611
3 *885:D *894:RESET_B 0.000163851
4 *885:D *900:D 0
5 *885:D *24:28 5.8662e-05
6 *885:D *84:124 4.82919e-05
*RES
1 *756:X *885:D 11.58 
*END

*D_NET *10 0.00596637
*CONN
*I *886:D I *D sky130_fd_sc_hd__dfrtp_1
*I *761:X O *D sky130_fd_sc_hd__clkbuf_1
*CAP
1 *886:D 0.00157548
2 *761:X 0.00157548
3 *886:D *741:A_N 2.31329e-05
4 *886:D *741:C 0.000195996
5 *886:D *768:A_N 0.000517899
6 *886:D *768:B 4.8446e-05
7 *886:D *777:A 0.000106961
8 *886:D *777:B 1.91597e-05
9 *886:D *777:C 4.77769e-05
10 *886:D *781:A 5.79895e-05
11 *886:D *783:B 0.000129707
12 *886:D *783:C 3.42235e-05
13 *886:D *784:A 0.00023003
14 *886:D *793:B 0.000176879
15 *886:D *807:A_N 0.00034376
16 *886:D *808:A 0.000158552
17 *886:D *827:A 0.000248247
18 *886:D *828:A 5.40057e-05
19 *886:D *845:A 0.000115779
20 *886:D *877:RESET_B 1.88904e-05
21 *886:D *885:CLK 2.76356e-05
22 *886:D *886:CLK 3.78892e-06
23 *886:D *886:RESET_B 5.32041e-05
24 *886:D *894:RESET_B 0.000129304
25 *886:D *899:RESET_B 5.03424e-05
26 *886:D *900:CLK 1.10085e-05
27 *886:D *84:149 1.26964e-05
*RES
1 *761:X *886:D 39.5537 
*END

*D_NET *11 0.00245056
*CONN
*I *887:D I *D sky130_fd_sc_hd__dfrtp_4
*I *765:X O *D sky130_fd_sc_hd__clkbuf_1
*CAP
1 *887:D 0.00054726
2 *765:X 0.00054726
3 *887:D *728:B 0.000464774
4 *887:D *748:A 3.87726e-05
5 *887:D *765:A 0.000418796
6 *887:D *68:28 0.000263411
7 *887:D *196:22 7.77156e-05
8 *887:D *197:10 9.25679e-05
*RES
1 *765:X *887:D 18.6 
*END

*D_NET *12 0.00981542
*CONN
*I *888:D I *D sky130_fd_sc_hd__dfrtp_1
*I *769:X O *D sky130_fd_sc_hd__buf_1
*CAP
1 *888:D 0.000214961
2 *769:X 0.00111815
3 *12:12 0.00133311
4 *888:D *745:B 0.000154401
5 *888:D *888:CLK 7.43691e-05
6 *888:D *90:153 0.000194425
7 *12:12 *708:A 0.00133668
8 *12:12 *724:A2 7.07879e-05
9 *12:12 *769:A 1.56428e-05
10 *12:12 *775:B 0.000270751
11 *12:12 *815:B 0.000594753
12 *12:12 *860:A 0.000159964
13 *12:12 *862:A 0
14 *12:12 *877:D 0.000327604
15 *12:12 *879:RESET_B 0.000260198
16 *12:12 *880:RESET_B 0.00103267
17 *12:12 *883:D 2.11834e-05
18 *12:12 *891:RESET_B 0.000830951
19 *12:12 *912:A 6.21248e-05
20 *12:12 *56:40 0.000543253
21 *12:12 *90:153 4.31189e-05
22 *12:12 *90:168 0.000219998
23 *12:12 *120:18 0
24 *12:12 *163:64 0.000777033
25 *12:12 *179:32 7.57922e-05
26 *12:12 *188:60 1.85333e-05
27 *12:12 *188:75 6.49655e-05
*RES
1 *769:X *12:12 48.485 
2 *12:12 *888:D 6.655 
*END

*D_NET *13 0.0113151
*CONN
*I *889:D I *D sky130_fd_sc_hd__dfrtp_2
*I *771:X O *D sky130_fd_sc_hd__o211a_1
*CAP
1 *889:D 0.00282154
2 *771:X 0.00282154
3 *889:D *713:D 7.27221e-05
4 *889:D *728:B 1.17863e-05
5 *889:D *729:A 0
6 *889:D *742:A 7.98262e-05
7 *889:D *779:B 0.000129438
8 *889:D *780:A 0.00020463
9 *889:D *791:A_N 0.000384572
10 *889:D *792:A 8.20709e-05
11 *889:D *799:C 7.54285e-05
12 *889:D *818:A2 0.000143036
13 *889:D *823:C 0.00112354
14 *889:D *848:A 5.62661e-05
15 *889:D *853:A 8.41384e-05
16 *889:D *872:RESET_B 0.000114525
17 *889:D *873:RESET_B 0.000439533
18 *889:D *879:D 0
19 *889:D *884:RESET_B 1.88602e-05
20 *889:D *889:CLK 8.44008e-05
21 *889:D *890:RESET_B 3.4746e-05
22 *889:D *900:RESET_B 0.000156764
23 *889:D *18:34 0.000261017
24 *889:D *71:22 0.000156369
25 *889:D *76:24 2.60116e-05
26 *889:D *81:22 4.74767e-05
27 *889:D *161:42 2.14921e-05
28 *889:D *162:85 4.3597e-05
29 *889:D *162:87 2.8531e-05
30 *889:D *163:16 0.000973005
31 *889:D *181:45 8.00598e-05
32 *889:D *183:66 0.000109875
33 *889:D *185:12 3.63478e-05
34 *889:D *185:57 9.06343e-05
35 *889:D *186:24 0.000235949
36 *889:D *199:14 0.00016221
37 *889:D *201:43 0.000103165
*RES
1 *771:X *889:D 35.0319 
*END

*D_NET *14 0.00673932
*CONN
*I *890:D I *D sky130_fd_sc_hd__dfrtp_1
*I *776:X O *D sky130_fd_sc_hd__clkbuf_1
*CAP
1 *890:D 0.00126001
2 *776:X 0.00126001
3 *890:D *720:B 7.75412e-05
4 *890:D *733:B 0.000121027
5 *890:D *734:B1 0.000727571
6 *890:D *766:A 2.91667e-05
7 *890:D *776:A 0.000123748
8 *890:D *800:A 0
9 *890:D *845:A 0.000145836
10 *890:D *872:D 0.000162665
11 *890:D *879:D 0.000430457
12 *890:D *890:RESET_B 0.000130204
13 *890:D *895:CLK 5.83121e-06
14 *890:D *29:28 1.20478e-05
15 *890:D *71:22 1.88656e-05
16 *890:D *108:22 0.000184365
17 *890:D *161:79 0.000136203
18 *890:D *166:38 0.00074664
19 *890:D *170:18 1.79536e-05
20 *890:D *182:39 4.27875e-05
21 *890:D *201:43 0.000440918
22 *890:D *204:50 0.000214199
23 *7:17 *890:D 0.000271325
24 *7:44 *890:D 3.92756e-05
25 *8:28 *890:D 0.000140676
*RES
1 *776:X *890:D 32.5633 
*END

*D_NET *15 0.00532103
*CONN
*I *891:D I *D sky130_fd_sc_hd__dfrtp_1
*I *780:X O *D sky130_fd_sc_hd__clkbuf_1
*CAP
1 *891:D 0.000825466
2 *780:X 0.000825466
3 *891:D *728:A 1.91597e-05
4 *891:D *757:B 0.000217604
5 *891:D *774:B1 1.43975e-05
6 *891:D *780:A 0.000598631
7 *891:D *799:B 0.000811782
8 *891:D *825:A 7.92281e-05
9 *891:D *836:A2 9.11242e-05
10 *891:D *881:RESET_B 7.9642e-06
11 *891:D *891:CLK 0
12 *891:D *101:12 3.34788e-05
13 *891:D *165:60 0.000493456
14 *891:D *181:28 0.000124667
15 *891:D *182:39 0.000812256
16 *891:D *185:57 0.000303873
17 *902:A *891:D 6.24785e-05
*RES
1 *780:X *891:D 30.36 
*END

*D_NET *16 0.000584356
*CONN
*I *892:D I *D sky130_fd_sc_hd__dfrtp_2
*I *784:X O *D sky130_fd_sc_hd__clkbuf_1
*CAP
1 *892:D 0.000140291
2 *784:X 0.000140291
3 *892:D *843:A 8.23457e-05
4 *892:D *892:RESET_B 4.88478e-05
5 *892:D *907:A 0.000121019
6 *892:D *55:22 5.15616e-05
*RES
1 *784:X *892:D 6.08 
*END

*D_NET *17 0.00687803
*CONN
*I *893:D I *D sky130_fd_sc_hd__dfrtp_1
*I *788:X O *D sky130_fd_sc_hd__clkbuf_1
*CAP
1 *893:D 0.00181504
2 *788:X 0.00181504
3 *893:D *730:A 1.91597e-05
4 *893:D *742:A 2.39856e-05
5 *893:D *746:A 2.5779e-05
6 *893:D *750:A2 6.60907e-06
7 *893:D *750:A3 0.000261828
8 *893:D *762:B 0.000743184
9 *893:D *803:A_N 5.06382e-06
10 *893:D *806:A 0.000376504
11 *893:D *809:A 0.000164224
12 *893:D *846:A 2.65814e-06
13 *893:D *873:CLK 0.000162987
14 *893:D *873:D 6.07575e-06
15 *893:D *893:CLK 1.34618e-05
16 *893:D *898:D 4.64172e-05
17 *893:D *29:28 5.83121e-06
18 *893:D *64:32 0.000846257
19 *893:D *137:28 5.05066e-06
20 *893:D *170:18 0
21 *893:D *196:58 0.000430275
22 *893:D *196:69 0.000102587
*RES
1 *788:X *893:D 42.745 
*END

*D_NET *18 0.019033
*CONN
*I *894:D I *D sky130_fd_sc_hd__dfrtp_4
*I *792:X O *D sky130_fd_sc_hd__buf_1
*CAP
1 *894:D 0
2 *792:X 0.00478783
3 *18:34 0.00478783
4 *18:34 *714:B 0.000101393
5 *18:34 *716:B 0.00020013
6 *18:34 *720:B 5.91615e-05
7 *18:34 *729:A 6.17086e-06
8 *18:34 *742:A 0.000681264
9 *18:34 *746:C 1.81522e-05
10 *18:34 *751:A_N 0.000115901
11 *18:34 *751:C 0
12 *18:34 *755:B 0.00011202
13 *18:34 *760:B 0.000112304
14 *18:34 *761:A 1.88656e-05
15 *18:34 *786:A1 0.000200377
16 *18:34 *791:A_N 1.79483e-05
17 *18:34 *792:A 0.000142661
18 *18:34 *809:A 1.08758e-05
19 *18:34 *809:B 9.7236e-05
20 *18:34 *811:B 0.000645463
21 *18:34 *811:C 4.50078e-05
22 *18:34 *815:C 0.000494013
23 *18:34 *818:A2 6.52988e-05
24 *18:34 *823:A 0.000135355
25 *18:34 *876:RESET_B 0.000468154
26 *18:34 *882:D 0.000795227
27 *18:34 *884:RESET_B 0.00120538
28 *18:34 *894:CLK 3.21647e-05
29 *18:34 *898:RESET_B 0.000221008
30 *18:34 *68:28 0.000125975
31 *18:34 *102:109 0.000129316
32 *18:34 *113:28 0.000134925
33 *18:34 *116:39 3.78821e-05
34 *18:34 *137:20 0.000465695
35 *18:34 *161:8 0.000143801
36 *18:34 *163:16 0.000157955
37 *18:34 *170:18 0.00193349
38 *18:34 *175:29 6.57391e-05
39 *889:D *18:34 0.000261017
*RES
1 *792:X *18:34 49.6179 
2 *18:34 *894:D 3.6 
*END

*D_NET *19 0.00760633
*CONN
*I *876:D I *D sky130_fd_sc_hd__dfrtp_4
*I *824:X O *D sky130_fd_sc_hd__clkbuf_1
*CAP
1 *876:D 0.00155699
2 *824:X 0.00155699
3 *876:D *718:C 8.30731e-05
4 *876:D *718:D 0
5 *876:D *746:A 6.73851e-05
6 *876:D *746:C 4.30026e-05
7 *876:D *747:A 0.000128665
8 *876:D *805:B 0.000108303
9 *876:D *805:C 0.000463392
10 *876:D *805:D 0.000311344
11 *876:D *821:B 7.01359e-05
12 *876:D *824:A 3.30017e-05
13 *876:D *854:A 0.000886334
14 *876:D *876:CLK 7.30505e-05
15 *876:D *156:14 0.000648493
16 *876:D *158:32 0.000160342
17 *876:D *162:140 6.9373e-05
18 *876:D *166:38 0.000110595
19 *876:D *166:86 0.000269139
20 *876:D *166:107 0
21 *876:D *192:22 0.000577698
22 *876:D *192:34 0.00011852
23 *876:D *195:18 0.000270497
*RES
1 *824:X *876:D 49.605 
*END

*D_NET *20 0.00770127
*CONN
*I *895:D I *D sky130_fd_sc_hd__dfrtp_1
*I *796:X O *D sky130_fd_sc_hd__clkbuf_1
*CAP
1 *895:D 0.000973418
2 *796:X 0.000973418
3 *895:D *730:A 0.000744345
4 *895:D *731:B1 0.000110223
5 *895:D *762:B 4.49994e-05
6 *895:D *771:B1 0.000868717
7 *895:D *895:RESET_B 0.000274907
8 *895:D *64:32 0.00111161
9 *895:D *70:14 0.000153414
10 *895:D *113:28 0.00125387
11 *895:D *122:43 0.00049849
12 *895:D *163:145 0.000129355
13 *895:D *163:160 0.00049882
14 *895:D *191:45 4.82863e-05
15 *895:D *201:43 1.7394e-05
*RES
1 *796:X *895:D 39.87 
*END
