* NGSPICE file created from zero_to_five_counter.ext - technology: sky130A

* Black-box entry subcircuit for sky130_fd_sc_hd__decap_8 abstract view
.subckt sky130_fd_sc_hd__decap_8 VGND VNB VPB VPWR
.ends

* Black-box entry subcircuit for sky130_fd_sc_hd__clkbuf_1 abstract view
.subckt sky130_fd_sc_hd__clkbuf_1 A VGND VNB VPB VPWR X
.ends

* Black-box entry subcircuit for sky130_fd_sc_hd__tapvpwrvgnd_1 abstract view
.subckt sky130_fd_sc_hd__tapvpwrvgnd_1 VGND VPWR
.ends

* Black-box entry subcircuit for sky130_fd_sc_hd__dfrtp_1 abstract view
.subckt sky130_fd_sc_hd__dfrtp_1 CLK D RESET_B VGND VNB VPB VPWR Q
.ends

* Black-box entry subcircuit for sky130_ef_sc_hd__decap_12 abstract view
.subckt sky130_ef_sc_hd__decap_12 VPWR VGND VPB VNB
.ends

* Black-box entry subcircuit for sky130_fd_sc_hd__nand2_1 abstract view
.subckt sky130_fd_sc_hd__nand2_1 A B VGND VNB VPB VPWR Y
.ends

* Black-box entry subcircuit for sky130_fd_sc_hd__dfrtp_2 abstract view
.subckt sky130_fd_sc_hd__dfrtp_2 CLK D RESET_B VGND VNB VPB VPWR Q
.ends

* Black-box entry subcircuit for sky130_fd_sc_hd__fill_1 abstract view
.subckt sky130_fd_sc_hd__fill_1 VGND VNB VPB VPWR
.ends

* Black-box entry subcircuit for sky130_fd_sc_hd__decap_6 abstract view
.subckt sky130_fd_sc_hd__decap_6 VGND VNB VPB VPWR
.ends

* Black-box entry subcircuit for sky130_fd_sc_hd__decap_3 abstract view
.subckt sky130_fd_sc_hd__decap_3 VGND VNB VPB VPWR
.ends

* Black-box entry subcircuit for sky130_fd_sc_hd__decap_4 abstract view
.subckt sky130_fd_sc_hd__decap_4 VGND VNB VPB VPWR
.ends

* Black-box entry subcircuit for sky130_fd_sc_hd__and3b_1 abstract view
.subckt sky130_fd_sc_hd__and3b_1 A_N B C VGND VNB VPB VPWR X
.ends

* Black-box entry subcircuit for sky130_fd_sc_hd__a21o_1 abstract view
.subckt sky130_fd_sc_hd__a21o_1 A1 A2 B1 VGND VNB VPB VPWR X
.ends

* Black-box entry subcircuit for sky130_fd_sc_hd__and2b_1 abstract view
.subckt sky130_fd_sc_hd__and2b_1 A_N B VGND VNB VPB VPWR X
.ends

* Black-box entry subcircuit for sky130_fd_sc_hd__inv_2 abstract view
.subckt sky130_fd_sc_hd__inv_2 A VGND VNB VPB VPWR Y
.ends

* Black-box entry subcircuit for sky130_fd_sc_hd__or3_1 abstract view
.subckt sky130_fd_sc_hd__or3_1 A B C VGND VNB VPB VPWR X
.ends

* Black-box entry subcircuit for sky130_fd_sc_hd__buf_1 abstract view
.subckt sky130_fd_sc_hd__buf_1 A VGND VNB VPB VPWR X
.ends

* Black-box entry subcircuit for sky130_fd_sc_hd__a21boi_1 abstract view
.subckt sky130_fd_sc_hd__a21boi_1 A1 A2 B1_N VGND VNB VPB VPWR Y
.ends

* Black-box entry subcircuit for sky130_fd_sc_hd__dfrtp_4 abstract view
.subckt sky130_fd_sc_hd__dfrtp_4 CLK D RESET_B VGND VNB VPB VPWR Q
.ends

* Black-box entry subcircuit for sky130_fd_sc_hd__and3_1 abstract view
.subckt sky130_fd_sc_hd__and3_1 A B C VGND VNB VPB VPWR X
.ends

* Black-box entry subcircuit for sky130_fd_sc_hd__and2_1 abstract view
.subckt sky130_fd_sc_hd__and2_1 A B VGND VNB VPB VPWR X
.ends

* Black-box entry subcircuit for sky130_fd_sc_hd__o31a_1 abstract view
.subckt sky130_fd_sc_hd__o31a_1 A1 A2 A3 B1 VGND VNB VPB VPWR X
.ends

* Black-box entry subcircuit for sky130_fd_sc_hd__fill_2 abstract view
.subckt sky130_fd_sc_hd__fill_2 VGND VNB VPB VPWR
.ends

* Black-box entry subcircuit for sky130_fd_sc_hd__clkbuf_4 abstract view
.subckt sky130_fd_sc_hd__clkbuf_4 A VGND VNB VPB VPWR X
.ends

* Black-box entry subcircuit for sky130_fd_sc_hd__or4_1 abstract view
.subckt sky130_fd_sc_hd__or4_1 A B C D VGND VNB VPB VPWR X
.ends

* Black-box entry subcircuit for sky130_fd_sc_hd__bufinv_16 abstract view
.subckt sky130_fd_sc_hd__bufinv_16 A VGND VNB VPB VPWR Y
.ends

* Black-box entry subcircuit for sky130_fd_sc_hd__buf_4 abstract view
.subckt sky130_fd_sc_hd__buf_4 A VGND VNB VPB VPWR X
.ends

* Black-box entry subcircuit for sky130_fd_sc_hd__or2_1 abstract view
.subckt sky130_fd_sc_hd__or2_1 A B VGND VNB VPB VPWR X
.ends

* Black-box entry subcircuit for sky130_fd_sc_hd__and4_2 abstract view
.subckt sky130_fd_sc_hd__and4_2 A B C D VGND VNB VPB VPWR X
.ends

* Black-box entry subcircuit for sky130_fd_sc_hd__nand3_1 abstract view
.subckt sky130_fd_sc_hd__nand3_1 A B C VGND VNB VPB VPWR Y
.ends

* Black-box entry subcircuit for sky130_fd_sc_hd__clkbuf_16 abstract view
.subckt sky130_fd_sc_hd__clkbuf_16 A VGND VNB VPB VPWR X
.ends

* Black-box entry subcircuit for sky130_fd_sc_hd__and2_2 abstract view
.subckt sky130_fd_sc_hd__and2_2 A B VGND VNB VPB VPWR X
.ends

* Black-box entry subcircuit for sky130_fd_sc_hd__xnor2_1 abstract view
.subckt sky130_fd_sc_hd__xnor2_1 A B VGND VNB VPB VPWR Y
.ends

* Black-box entry subcircuit for sky130_fd_sc_hd__and3_2 abstract view
.subckt sky130_fd_sc_hd__and3_2 A B C VGND VNB VPB VPWR X
.ends

* Black-box entry subcircuit for sky130_fd_sc_hd__a31o_1 abstract view
.subckt sky130_fd_sc_hd__a31o_1 A1 A2 A3 B1 VGND VNB VPB VPWR X
.ends

* Black-box entry subcircuit for sky130_fd_sc_hd__buf_2 abstract view
.subckt sky130_fd_sc_hd__buf_2 A VGND VNB VPB VPWR X
.ends

* Black-box entry subcircuit for sky130_fd_sc_hd__or3b_1 abstract view
.subckt sky130_fd_sc_hd__or3b_1 A B C_N VGND VNB VPB VPWR X
.ends

* Black-box entry subcircuit for sky130_fd_sc_hd__o211a_1 abstract view
.subckt sky130_fd_sc_hd__o211a_1 A1 A2 B1 C1 VGND VNB VPB VPWR X
.ends

* Black-box entry subcircuit for sky130_fd_sc_hd__and4b_2 abstract view
.subckt sky130_fd_sc_hd__and4b_2 A_N B C D VGND VNB VPB VPWR X
.ends

* Black-box entry subcircuit for sky130_fd_sc_hd__a22oi_4 abstract view
.subckt sky130_fd_sc_hd__a22oi_4 A1 A2 B1 B2 VGND VNB VPB VPWR Y
.ends

* Black-box entry subcircuit for sky130_fd_sc_hd__nor3_1 abstract view
.subckt sky130_fd_sc_hd__nor3_1 A B C VGND VNB VPB VPWR Y
.ends

* Black-box entry subcircuit for sky130_fd_sc_hd__or4b_2 abstract view
.subckt sky130_fd_sc_hd__or4b_2 A B C D_N VGND VNB VPB VPWR X
.ends

.subckt zero_to_five_counter VGND VPWR clk count[0] count[1] count[2] reset
XFILLER_0_27_60 VGND VGND VPWR VPWR sky130_fd_sc_hd__decap_8
X_294_ _152_ VGND VGND VPWR VPWR _022_ sky130_fd_sc_hd__clkbuf_1
XTAP_TAPCELL_ROW_21_109 VGND VPWR sky130_fd_sc_hd__tapvpwrvgnd_1
X_346_ clknet_2_2__leaf_clk _006_ _045_ VGND VGND VPWR VPWR one_second_counter\[15\]
+ sky130_fd_sc_hd__dfrtp_1
XFILLER_0_18_29 VPWR VGND VPWR VGND sky130_ef_sc_hd__decap_12
XFILLER_0_24_72 VPWR VGND VPWR VGND sky130_ef_sc_hd__decap_12
X_277_ one_second_counter\[1\] one_second_counter\[0\] VGND VGND VPWR VPWR _140_ sky130_fd_sc_hd__nand2_1
X_200_ one_second_counter\[8\] _158_ VGND VGND VPWR VPWR _083_ sky130_fd_sc_hd__nand2_1
X_329_ clknet_2_3__leaf_clk _058_ _028_ VGND VGND VPWR VPWR net2 sky130_fd_sc_hd__dfrtp_2
XFILLER_0_0_29 VPWR VGND VPWR VGND sky130_ef_sc_hd__decap_12
XFILLER_0_9_38 VGND VGND VPWR VPWR sky130_fd_sc_hd__fill_1
XFILLER_0_10_41 VPWR VGND VPWR VGND sky130_ef_sc_hd__decap_12
XFILLER_0_10_85 VGND VGND VPWR VPWR sky130_fd_sc_hd__decap_6
XFILLER_0_31_29 VGND VGND VPWR VPWR sky130_fd_sc_hd__decap_3
XFILLER_0_15_19 VGND VGND VPWR VPWR sky130_fd_sc_hd__decap_4
XFILLER_0_21_40 VPWR VGND VPWR VGND sky130_ef_sc_hd__decap_12
XFILLER_0_26_29 VPWR VGND VPWR VGND sky130_ef_sc_hd__decap_12
XFILLER_0_22_109 VGND VGND VPWR VPWR sky130_fd_sc_hd__decap_8
XFILLER_0_1_50 VGND VGND VPWR VPWR sky130_fd_sc_hd__decap_6
XPHY_EDGE_ROW_16_Left_48 VGND VGND VPWR VPWR sky130_fd_sc_hd__decap_3
XFILLER_0_27_83 VPWR VGND VPWR VGND sky130_ef_sc_hd__decap_12
XFILLER_0_7_93 VGND VGND VPWR VPWR sky130_fd_sc_hd__decap_3
X_293_ _077_ _075_ _151_ VGND VGND VPWR VPWR _152_ sky130_fd_sc_hd__and3b_1
XFILLER_0_13_52 VGND VGND VPWR VPWR sky130_fd_sc_hd__decap_4
XPHY_EDGE_ROW_19_Left_51 VGND VGND VPWR VPWR sky130_fd_sc_hd__decap_3
X_276_ _139_ VGND VGND VPWR VPWR _000_ sky130_fd_sc_hd__clkbuf_1
X_345_ clknet_2_1__leaf_clk _005_ _044_ VGND VGND VPWR VPWR one_second_counter\[14\]
+ sky130_fd_sc_hd__dfrtp_2
XPHY_EDGE_ROW_21_Right_21 VGND VGND VPWR VPWR sky130_fd_sc_hd__decap_3
XPHY_EDGE_ROW_4_Left_36 VGND VGND VPWR VPWR sky130_fd_sc_hd__decap_3
XPHY_EDGE_ROW_12_Right_12 VGND VGND VPWR VPWR sky130_fd_sc_hd__decap_3
X_259_ _126_ _076_ _127_ VGND VGND VPWR VPWR _128_ sky130_fd_sc_hd__and3b_1
XPHY_EDGE_ROW_30_Right_30 VGND VGND VPWR VPWR sky130_fd_sc_hd__decap_3
X_328_ clknet_2_0__leaf_clk _057_ _027_ VGND VGND VPWR VPWR net1 sky130_fd_sc_hd__dfrtp_2
XFILLER_0_19_62 VPWR VGND VPWR VGND sky130_ef_sc_hd__decap_12
XFILLER_0_10_53 VGND VGND VPWR VPWR sky130_fd_sc_hd__decap_4
XFILLER_0_21_52 VGND VGND VPWR VPWR sky130_fd_sc_hd__decap_4
XFILLER_0_16_107 VPWR VGND VPWR VGND sky130_ef_sc_hd__decap_12
XFILLER_0_30_121 VGND VGND VPWR VPWR sky130_fd_sc_hd__fill_1
XFILLER_0_27_3 VGND VGND VPWR VPWR sky130_fd_sc_hd__decap_6
XFILLER_0_6_29 VGND VGND VPWR VPWR sky130_fd_sc_hd__decap_8
XFILLER_0_16_85 VPWR VGND VPWR VGND sky130_ef_sc_hd__decap_12
XPHY_EDGE_ROW_6_Right_6 VGND VGND VPWR VPWR sky130_fd_sc_hd__decap_3
XFILLER_0_12_121 VGND VGND VPWR VPWR sky130_fd_sc_hd__decap_4
XFILLER_0_5_118 VGND VGND VPWR VPWR sky130_fd_sc_hd__decap_6
XFILLER_0_27_95 VPWR VGND VPWR VGND sky130_ef_sc_hd__decap_12
X_292_ one_second_counter\[4\] _156_ one_second_counter\[5\] VGND VGND VPWR VPWR _151_
+ sky130_fd_sc_hd__a21o_1
X_275_ one_second_counter\[0\] _082_ VGND VGND VPWR VPWR _139_ sky130_fd_sc_hd__and2b_1
X_344_ clknet_2_1__leaf_clk _004_ _043_ VGND VGND VPWR VPWR one_second_counter\[13\]
+ sky130_fd_sc_hd__dfrtp_1
XPHY_EDGE_ROW_20_Left_52 VGND VGND VPWR VPWR sky130_fd_sc_hd__decap_3
X_327_ _155_ VGND VGND VPWR VPWR _056_ sky130_fd_sc_hd__inv_2
XFILLER_0_19_74 VGND VGND VPWR VPWR sky130_fd_sc_hd__decap_8
X_189_ one_second_counter\[19\] _072_ _073_ VGND VGND VPWR VPWR _074_ sky130_fd_sc_hd__or3_1
X_258_ one_second_counter\[21\] _120_ one_second_counter\[22\] VGND VGND VPWR VPWR
+ _127_ sky130_fd_sc_hd__a21o_1
XFILLER_0_16_119 VGND VGND VPWR VPWR sky130_fd_sc_hd__decap_3
XFILLER_0_16_97 VGND VGND VPWR VPWR sky130_fd_sc_hd__decap_4
XFILLER_0_9_3 VGND VGND VPWR VPWR sky130_fd_sc_hd__fill_1
XFILLER_0_27_52 VGND VGND VPWR VPWR sky130_fd_sc_hd__fill_1
X_291_ _150_ VGND VGND VPWR VPWR _021_ sky130_fd_sc_hd__buf_1
XFILLER_0_7_73 VPWR VGND VPWR VGND sky130_ef_sc_hd__decap_12
XFILLER_0_1_111 VGND VGND VPWR VPWR sky130_fd_sc_hd__fill_1
X_274_ _138_ _136_ _082_ VGND VGND VPWR VPWR _018_ sky130_fd_sc_hd__a21boi_1
X_343_ clknet_2_1__leaf_clk _003_ _042_ VGND VGND VPWR VPWR one_second_counter\[12\]
+ sky130_fd_sc_hd__dfrtp_4
XFILLER_0_4_63 VGND VGND VPWR VPWR sky130_fd_sc_hd__decap_8
XFILLER_0_4_74 VGND VGND VPWR VPWR sky130_fd_sc_hd__fill_1
X_257_ one_second_counter\[19\] _159_ _114_ VGND VGND VPWR VPWR _126_ sky130_fd_sc_hd__and3_1
X_188_ one_second_counter\[17\] one_second_counter\[18\] VGND VGND VPWR VPWR _073_
+ sky130_fd_sc_hd__and2_1
XFILLER_0_10_11 VGND VGND VPWR VPWR sky130_fd_sc_hd__decap_3
XFILLER_0_10_22 VGND VGND VPWR VPWR sky130_fd_sc_hd__decap_6
X_326_ _155_ VGND VGND VPWR VPWR _055_ sky130_fd_sc_hd__inv_2
XFILLER_0_19_117 VGND VGND VPWR VPWR sky130_fd_sc_hd__fill_1
X_309_ _154_ VGND VGND VPWR VPWR _039_ sky130_fd_sc_hd__inv_2
XFILLER_0_1_97 VGND VGND VPWR VPWR sky130_fd_sc_hd__fill_1
XFILLER_0_21_101 VGND VGND VPWR VPWR sky130_fd_sc_hd__decap_8
XFILLER_0_7_30 VPWR VGND VPWR VGND sky130_ef_sc_hd__decap_12
XFILLER_0_7_85 VGND VGND VPWR VPWR sky130_fd_sc_hd__decap_8
X_290_ _148_ _076_ _149_ VGND VGND VPWR VPWR _150_ sky130_fd_sc_hd__and3_1
X_273_ one_second_counter\[26\] VGND VGND VPWR VPWR _138_ sky130_fd_sc_hd__inv_2
X_342_ clknet_2_0__leaf_clk _002_ _041_ VGND VGND VPWR VPWR one_second_counter\[11\]
+ sky130_fd_sc_hd__dfrtp_1
X_187_ one_second_counter\[12\] _158_ _161_ _071_ VGND VGND VPWR VPWR _072_ sky130_fd_sc_hd__o31a_1
XFILLER_0_19_54 VGND VGND VPWR VPWR sky130_fd_sc_hd__fill_2
X_325_ _155_ VGND VGND VPWR VPWR _054_ sky130_fd_sc_hd__inv_2
X_256_ _125_ VGND VGND VPWR VPWR _013_ sky130_fd_sc_hd__clkbuf_1
Xclkload0 clknet_2_1__leaf_clk VGND VGND VPWR VPWR clkload0/X sky130_fd_sc_hd__clkbuf_4
XFILLER_0_24_110 VPWR VGND VPWR VGND sky130_ef_sc_hd__decap_12
XFILLER_0_21_77 VGND VGND VPWR VPWR sky130_fd_sc_hd__fill_1
X_239_ _082_ _111_ _112_ VGND VGND VPWR VPWR _113_ sky130_fd_sc_hd__and3_1
X_308_ _154_ VGND VGND VPWR VPWR _038_ sky130_fd_sc_hd__inv_2
XFILLER_0_21_113 VPWR VGND VPWR VGND sky130_ef_sc_hd__decap_12
XFILLER_0_25_3 VPWR VGND VPWR VGND sky130_ef_sc_hd__decap_12
XPHY_EDGE_ROW_28_Right_28 VGND VGND VPWR VPWR sky130_fd_sc_hd__decap_3
XPHY_EDGE_ROW_19_Right_19 VGND VGND VPWR VPWR sky130_fd_sc_hd__decap_3
XFILLER_0_4_110 VPWR VGND VPWR VGND sky130_ef_sc_hd__decap_12
XFILLER_0_7_42 VGND VGND VPWR VPWR sky130_fd_sc_hd__decap_8
XFILLER_0_7_53 VGND VGND VPWR VPWR sky130_fd_sc_hd__decap_3
XFILLER_0_1_113 VPWR VGND VPWR VGND sky130_ef_sc_hd__decap_12
XFILLER_0_13_12 VGND VGND VPWR VPWR sky130_fd_sc_hd__decap_4
XFILLER_0_13_45 VGND VGND VPWR VPWR sky130_fd_sc_hd__fill_2
XFILLER_0_13_78 VPWR VGND VPWR VGND sky130_ef_sc_hd__decap_12
X_341_ clknet_2_0__leaf_clk _001_ _040_ VGND VGND VPWR VPWR one_second_counter\[10\]
+ sky130_fd_sc_hd__dfrtp_2
X_272_ _137_ VGND VGND VPWR VPWR _017_ sky130_fd_sc_hd__clkbuf_1
X_186_ _060_ VGND VGND VPWR VPWR _071_ sky130_fd_sc_hd__inv_2
XPHY_EDGE_ROW_24_Left_56 VGND VGND VPWR VPWR sky130_fd_sc_hd__decap_3
X_255_ _082_ _123_ _124_ VGND VGND VPWR VPWR _125_ sky130_fd_sc_hd__and3_1
X_324_ _155_ VGND VGND VPWR VPWR _053_ sky130_fd_sc_hd__inv_2
Xclkload1 clknet_2_2__leaf_clk VGND VGND VPWR VPWR clkload1/X sky130_fd_sc_hd__clkbuf_4
X_169_ one_second_counter\[8\] one_second_counter\[9\] one_second_counter\[10\] one_second_counter\[11\]
+ VGND VGND VPWR VPWR _161_ sky130_fd_sc_hd__or4_1
X_307_ _154_ VGND VGND VPWR VPWR _037_ sky130_fd_sc_hd__inv_2
X_238_ one_second_counter\[17\] _108_ VGND VGND VPWR VPWR _112_ sky130_fd_sc_hd__nand2_1
XFILLER_0_1_77 VPWR VGND VPWR VGND sky130_ef_sc_hd__decap_12
XFILLER_0_18_3 VPWR VGND VPWR VGND sky130_ef_sc_hd__decap_12
XPHY_EDGE_ROW_11_Left_43 VGND VGND VPWR VPWR sky130_fd_sc_hd__decap_3
XFILLER_0_4_122 VGND VGND VPWR VPWR sky130_fd_sc_hd__decap_3
XTAP_TAPCELL_ROW_23_112 VGND VPWR sky130_fd_sc_hd__tapvpwrvgnd_1
XFILLER_0_7_3 VGND VGND VPWR VPWR sky130_fd_sc_hd__fill_2
XTAP_TAPCELL_ROW_3_72 VGND VPWR sky130_fd_sc_hd__tapvpwrvgnd_1
XFILLER_0_13_57 VPWR VGND VPWR VGND sky130_ef_sc_hd__decap_12
X_340_ clknet_2_2__leaf_clk _026_ _039_ VGND VGND VPWR VPWR one_second_counter\[9\]
+ sky130_fd_sc_hd__dfrtp_1
XFILLER_0_24_56 VGND VGND VPWR VPWR sky130_fd_sc_hd__fill_1
X_271_ _082_ _135_ _136_ VGND VGND VPWR VPWR _137_ sky130_fd_sc_hd__and3_1
XFILLER_0_28_109 VPWR VGND VPWR VGND sky130_ef_sc_hd__decap_12
X_254_ one_second_counter\[21\] _120_ VGND VGND VPWR VPWR _124_ sky130_fd_sc_hd__nand2_1
X_185_ _070_ VGND VGND VPWR VPWR _057_ sky130_fd_sc_hd__clkbuf_1
X_323_ _155_ VGND VGND VPWR VPWR _052_ sky130_fd_sc_hd__inv_2
XTAP_TAPCELL_ROW_13_92 VGND VPWR sky130_fd_sc_hd__tapvpwrvgnd_1
Xclkload2 clknet_2_3__leaf_clk VGND VGND VPWR VPWR clkload2/Y sky130_fd_sc_hd__bufinv_16
X_306_ reset VGND VGND VPWR VPWR _154_ sky130_fd_sc_hd__buf_4
X_237_ one_second_counter\[17\] _108_ VGND VGND VPWR VPWR _111_ sky130_fd_sc_hd__or2_1
X_168_ one_second_counter\[23\] one_second_counter\[24\] one_second_counter\[26\]
+ _159_ VGND VGND VPWR VPWR _160_ sky130_fd_sc_hd__and4_2
XFILLER_0_1_89 VGND VGND VPWR VPWR sky130_fd_sc_hd__decap_8
XPHY_EDGE_ROW_1_Right_1 VGND VGND VPWR VPWR sky130_fd_sc_hd__decap_3
XTAP_TAPCELL_ROW_23_113 VGND VPWR sky130_fd_sc_hd__tapvpwrvgnd_1
XFILLER_0_7_99 VPWR VGND VPWR VGND sky130_ef_sc_hd__decap_12
XTAP_TAPCELL_ROW_3_73 VGND VPWR sky130_fd_sc_hd__tapvpwrvgnd_1
XFILLER_0_13_69 VGND VGND VPWR VPWR sky130_fd_sc_hd__fill_2
X_270_ one_second_counter\[24\] one_second_counter\[25\] _129_ VGND VGND VPWR VPWR
+ _136_ sky130_fd_sc_hd__nand3_1
XFILLER_0_24_68 VGND VGND VPWR VPWR sky130_fd_sc_hd__fill_1
XFILLER_0_4_23 VGND VGND VPWR VPWR sky130_fd_sc_hd__decap_4
XFILLER_0_4_78 VGND VGND VPWR VPWR sky130_fd_sc_hd__fill_1
X_322_ _155_ VGND VGND VPWR VPWR _051_ sky130_fd_sc_hd__inv_2
XTAP_TAPCELL_ROW_13_93 VGND VPWR sky130_fd_sc_hd__tapvpwrvgnd_1
XFILLER_0_27_121 VGND VGND VPWR VPWR sky130_fd_sc_hd__decap_4
X_253_ one_second_counter\[21\] _120_ VGND VGND VPWR VPWR _123_ sky130_fd_sc_hd__or2_1
X_184_ _068_ _069_ VGND VGND VPWR VPWR _070_ sky130_fd_sc_hd__and2_1
X_305_ _153_ VGND VGND VPWR VPWR _036_ sky130_fd_sc_hd__inv_2
X_167_ one_second_counter\[20\] one_second_counter\[21\] one_second_counter\[22\]
+ VGND VGND VPWR VPWR _159_ sky130_fd_sc_hd__and3_1
X_236_ _110_ VGND VGND VPWR VPWR _007_ sky130_fd_sc_hd__clkbuf_1
XFILLER_0_27_9 VGND VGND VPWR VPWR sky130_fd_sc_hd__fill_1
XFILLER_0_15_113 VPWR VGND VPWR VGND sky130_ef_sc_hd__decap_12
X_219_ one_second_counter\[12\] _094_ VGND VGND VPWR VPWR _098_ sky130_fd_sc_hd__or2_1
Xclkbuf_0_clk clk VGND VGND VPWR VPWR clknet_0_clk sky130_fd_sc_hd__clkbuf_16
XTAP_TAPCELL_ROW_17_100 VGND VPWR sky130_fd_sc_hd__tapvpwrvgnd_1
XPHY_EDGE_ROW_24_Right_24 VGND VGND VPWR VPWR sky130_fd_sc_hd__decap_3
XFILLER_0_23_3 VPWR VGND VPWR VGND sky130_ef_sc_hd__decap_12
XPHY_EDGE_ROW_15_Right_15 VGND VGND VPWR VPWR sky130_fd_sc_hd__decap_3
XFILLER_0_13_37 VGND VGND VPWR VPWR sky130_fd_sc_hd__decap_8
XTAP_TAPCELL_ROW_20_106 VGND VPWR sky130_fd_sc_hd__tapvpwrvgnd_1
XFILLER_0_24_36 VPWR VGND VPWR VGND sky130_ef_sc_hd__decap_12
X_252_ _122_ VGND VGND VPWR VPWR _012_ sky130_fd_sc_hd__clkbuf_1
X_321_ _155_ VGND VGND VPWR VPWR _050_ sky130_fd_sc_hd__inv_2
XFILLER_0_19_47 VGND VGND VPWR VPWR sky130_fd_sc_hd__fill_1
XFILLER_0_19_14 VGND VGND VPWR VPWR sky130_fd_sc_hd__decap_3
X_183_ _062_ _066_ net1 VGND VGND VPWR VPWR _069_ sky130_fd_sc_hd__a21o_1
XTAP_TAPCELL_ROW_0_64 VGND VPWR sky130_fd_sc_hd__tapvpwrvgnd_1
XTAP_TAPCELL_ROW_9_84 VGND VPWR sky130_fd_sc_hd__tapvpwrvgnd_1
XFILLER_0_27_111 VGND VGND VPWR VPWR sky130_fd_sc_hd__fill_1
X_235_ _108_ _109_ _075_ VGND VGND VPWR VPWR _110_ sky130_fd_sc_hd__and3b_1
X_304_ _153_ VGND VGND VPWR VPWR _035_ sky130_fd_sc_hd__inv_2
X_166_ one_second_counter\[7\] _157_ VGND VGND VPWR VPWR _158_ sky130_fd_sc_hd__and2_2
XFILLER_0_11_92 VGND VGND VPWR VPWR sky130_fd_sc_hd__fill_2
X_218_ one_second_counter\[12\] _094_ VGND VGND VPWR VPWR _097_ sky130_fd_sc_hd__and2_1
XFILLER_0_16_15 VPWR VGND VPWR VGND sky130_ef_sc_hd__decap_12
XFILLER_0_16_37 VGND VGND VPWR VPWR sky130_fd_sc_hd__fill_2
XFILLER_0_16_48 VPWR VGND VPWR VGND sky130_ef_sc_hd__decap_12
XFILLER_0_7_111 VGND VGND VPWR VPWR sky130_fd_sc_hd__fill_1
XFILLER_0_27_25 VPWR VGND VPWR VGND sky130_ef_sc_hd__decap_12
XTAP_TAPCELL_ROW_17_101 VGND VPWR sky130_fd_sc_hd__tapvpwrvgnd_1
XFILLER_0_7_57 VGND VGND VPWR VPWR sky130_fd_sc_hd__decap_8
XPHY_EDGE_ROW_15_Left_47 VGND VGND VPWR VPWR sky130_fd_sc_hd__decap_3
XFILLER_0_16_3 VPWR VGND VPWR VGND sky130_ef_sc_hd__decap_12
XTAP_TAPCELL_ROW_20_107 VGND VPWR sky130_fd_sc_hd__tapvpwrvgnd_1
XFILLER_0_24_48 VGND VGND VPWR VPWR sky130_fd_sc_hd__decap_8
XFILLER_0_24_26 VGND VGND VPWR VPWR sky130_fd_sc_hd__fill_2
Xclkbuf_2_0__f_clk clknet_0_clk VGND VGND VPWR VPWR clknet_2_0__leaf_clk sky130_fd_sc_hd__clkbuf_16
XPHY_EDGE_ROW_18_Left_50 VGND VGND VPWR VPWR sky130_fd_sc_hd__decap_3
XFILLER_0_4_36 VGND VGND VPWR VPWR sky130_fd_sc_hd__decap_3
X_251_ _120_ _076_ _121_ VGND VGND VPWR VPWR _122_ sky130_fd_sc_hd__and3b_1
X_182_ net2 _068_ VGND VGND VPWR VPWR _058_ sky130_fd_sc_hd__xnor2_1
XTAP_TAPCELL_ROW_0_65 VGND VPWR sky130_fd_sc_hd__tapvpwrvgnd_1
X_320_ _155_ VGND VGND VPWR VPWR _049_ sky130_fd_sc_hd__inv_2
XTAP_TAPCELL_ROW_9_85 VGND VPWR sky130_fd_sc_hd__tapvpwrvgnd_1
XPHY_EDGE_ROW_3_Left_35 VGND VGND VPWR VPWR sky130_fd_sc_hd__decap_3
X_303_ _153_ VGND VGND VPWR VPWR _034_ sky130_fd_sc_hd__inv_2
X_165_ one_second_counter\[6\] one_second_counter\[5\] one_second_counter\[4\] _156_
+ VGND VGND VPWR VPWR _157_ sky130_fd_sc_hd__and4_2
XFILLER_0_21_16 VPWR VGND VPWR VGND sky130_ef_sc_hd__decap_12
XFILLER_0_1_26 VPWR VGND VPWR VGND sky130_ef_sc_hd__decap_12
XFILLER_0_1_15 VGND VGND VPWR VPWR sky130_fd_sc_hd__decap_4
X_234_ one_second_counter\[16\] _105_ VGND VGND VPWR VPWR _109_ sky130_fd_sc_hd__or2_1
X_217_ _096_ VGND VGND VPWR VPWR _002_ sky130_fd_sc_hd__clkbuf_1
XFILLER_0_16_27 VGND VGND VPWR VPWR sky130_fd_sc_hd__fill_1
XFILLER_0_2_91 VGND VGND VPWR VPWR sky130_fd_sc_hd__decap_6
XFILLER_0_27_37 VGND VGND VPWR VPWR sky130_fd_sc_hd__decap_8
XPHY_EDGE_ROW_5_Right_5 VGND VGND VPWR VPWR sky130_fd_sc_hd__decap_3
XFILLER_0_1_107 VGND VGND VPWR VPWR sky130_fd_sc_hd__decap_4
XFILLER_0_4_15 VGND VGND VPWR VPWR sky130_fd_sc_hd__decap_4
X_181_ net1 _062_ VGND VGND VPWR VPWR _068_ sky130_fd_sc_hd__nand2_1
XFILLER_0_10_18 VGND VGND VPWR VPWR sky130_fd_sc_hd__fill_1
XFILLER_0_10_29 VPWR VGND VPWR VGND sky130_ef_sc_hd__decap_12
X_250_ one_second_counter\[20\] _117_ VGND VGND VPWR VPWR _121_ sky130_fd_sc_hd__or2_1
XTAP_TAPCELL_ROW_0_66 VGND VPWR sky130_fd_sc_hd__tapvpwrvgnd_1
XFILLER_0_25_81 VGND VGND VPWR VPWR sky130_fd_sc_hd__decap_8
X_164_ one_second_counter\[3\] one_second_counter\[2\] one_second_counter\[1\] one_second_counter\[0\]
+ VGND VGND VPWR VPWR _156_ sky130_fd_sc_hd__and4_2
X_302_ _153_ VGND VGND VPWR VPWR _033_ sky130_fd_sc_hd__inv_2
XFILLER_0_21_28 VPWR VGND VPWR VGND sky130_ef_sc_hd__decap_12
X_233_ one_second_counter\[16\] _104_ _094_ VGND VGND VPWR VPWR _108_ sky130_fd_sc_hd__and3_2
XFILLER_0_1_38 VPWR VGND VPWR VGND sky130_ef_sc_hd__decap_12
XTAP_TAPCELL_ROW_10_86 VGND VPWR sky130_fd_sc_hd__tapvpwrvgnd_1
X_216_ _094_ _095_ _075_ VGND VGND VPWR VPWR _096_ sky130_fd_sc_hd__and3b_1
XFILLER_0_7_113 VPWR VGND VPWR VGND sky130_ef_sc_hd__decap_12
XFILLER_0_27_16 VGND VGND VPWR VPWR sky130_fd_sc_hd__decap_4
XFILLER_0_17_93 VPWR VGND VPWR VGND sky130_ef_sc_hd__decap_12
XPHY_EDGE_ROW_20_Right_20 VGND VGND VPWR VPWR sky130_fd_sc_hd__decap_3
XPHY_EDGE_ROW_11_Right_11 VGND VGND VPWR VPWR sky130_fd_sc_hd__decap_3
XFILLER_0_21_3 VGND VGND VPWR VPWR sky130_fd_sc_hd__decap_4
XFILLER_0_4_27 VGND VGND VPWR VPWR sky130_fd_sc_hd__fill_1
X_180_ net3 _063_ _067_ VGND VGND VPWR VPWR _059_ sky130_fd_sc_hd__a21o_1
XFILLER_0_19_28 VGND VGND VPWR VPWR sky130_fd_sc_hd__decap_6
XTAP_TAPCELL_ROW_0_67 VGND VPWR sky130_fd_sc_hd__tapvpwrvgnd_1
XFILLER_0_25_93 VPWR VGND VPWR VGND sky130_ef_sc_hd__decap_12
XFILLER_0_24_106 VGND VGND VPWR VPWR sky130_fd_sc_hd__fill_1
X_301_ _153_ VGND VGND VPWR VPWR _032_ sky130_fd_sc_hd__inv_2
X_232_ _107_ VGND VGND VPWR VPWR _006_ sky130_fd_sc_hd__clkbuf_1
XFILLER_0_30_109 VPWR VGND VPWR VGND sky130_ef_sc_hd__decap_12
XTAP_TAPCELL_ROW_10_87 VGND VPWR sky130_fd_sc_hd__tapvpwrvgnd_1
XFILLER_0_11_84 VGND VGND VPWR VPWR sky130_fd_sc_hd__decap_8
XFILLER_0_15_106 VGND VGND VPWR VPWR sky130_fd_sc_hd__decap_6
XFILLER_0_16_29 VGND VGND VPWR VPWR sky130_fd_sc_hd__decap_8
X_215_ one_second_counter\[10\] _087_ one_second_counter\[11\] VGND VGND VPWR VPWR
+ _095_ sky130_fd_sc_hd__a21o_1
XFILLER_0_12_109 VPWR VGND VPWR VGND sky130_ef_sc_hd__decap_12
XFILLER_0_22_83 VGND VGND VPWR VPWR sky130_fd_sc_hd__fill_1
XFILLER_0_2_71 VGND VGND VPWR VPWR sky130_fd_sc_hd__fill_1
XFILLER_0_5_6 VPWR VGND VPWR VGND sky130_ef_sc_hd__decap_12
XFILLER_0_14_3 VPWR VGND VPWR VGND sky130_ef_sc_hd__decap_12
XFILLER_0_24_18 VGND VGND VPWR VPWR sky130_fd_sc_hd__decap_8
XFILLER_0_30_83 VGND VGND VPWR VPWR sky130_fd_sc_hd__fill_1
XFILLER_0_3_3 VGND VGND VPWR VPWR sky130_fd_sc_hd__decap_8
X_300_ _153_ VGND VGND VPWR VPWR _031_ sky130_fd_sc_hd__inv_2
XFILLER_0_5_60 VPWR VGND VPWR VGND sky130_ef_sc_hd__decap_12
X_231_ _105_ _076_ _106_ VGND VGND VPWR VPWR _107_ sky130_fd_sc_hd__and3b_1
XPHY_EDGE_ROW_7_Left_39 VGND VGND VPWR VPWR sky130_fd_sc_hd__decap_3
XTAP_TAPCELL_ROW_29_124 VGND VPWR sky130_fd_sc_hd__tapvpwrvgnd_1
X_214_ one_second_counter\[7\] _157_ _086_ _093_ VGND VGND VPWR VPWR _094_ sky130_fd_sc_hd__and4_2
XTAP_TAPCELL_ROW_6_78 VGND VPWR sky130_fd_sc_hd__tapvpwrvgnd_1
XFILLER_0_2_83 VGND VGND VPWR VPWR sky130_fd_sc_hd__fill_1
XTAP_TAPCELL_ROW_31_130 VGND VPWR sky130_fd_sc_hd__tapvpwrvgnd_1
XFILLER_0_17_40 VPWR VGND VPWR VGND sky130_ef_sc_hd__decap_12
XTAP_TAPCELL_ROW_16_98 VGND VPWR sky130_fd_sc_hd__tapvpwrvgnd_1
XFILLER_0_0_110 VGND VGND VPWR VPWR sky130_fd_sc_hd__fill_2
XPHY_EDGE_ROW_9_Right_9 VGND VGND VPWR VPWR sky130_fd_sc_hd__decap_3
XFILLER_0_28_83 VGND VGND VPWR VPWR sky130_fd_sc_hd__fill_1
XFILLER_0_14_85 VPWR VGND VPWR VGND sky130_ef_sc_hd__decap_12
XFILLER_0_5_72 VGND VGND VPWR VPWR sky130_fd_sc_hd__fill_2
X_230_ one_second_counter\[14\] _100_ one_second_counter\[15\] VGND VGND VPWR VPWR
+ _106_ sky130_fd_sc_hd__a21o_1
XPHY_EDGE_ROW_23_Left_55 VGND VGND VPWR VPWR sky130_fd_sc_hd__decap_3
XFILLER_0_11_97 VGND VGND VPWR VPWR sky130_fd_sc_hd__decap_3
XTAP_TAPCELL_ROW_29_125 VGND VPWR sky130_fd_sc_hd__tapvpwrvgnd_1
XTAP_TAPCELL_ROW_6_79 VGND VPWR sky130_fd_sc_hd__tapvpwrvgnd_1
X_213_ one_second_counter\[10\] one_second_counter\[11\] VGND VGND VPWR VPWR _093_
+ sky130_fd_sc_hd__and2_1
XFILLER_0_22_63 VGND VGND VPWR VPWR sky130_fd_sc_hd__fill_1
XFILLER_0_11_111 VGND VGND VPWR VPWR sky130_fd_sc_hd__fill_1
XFILLER_0_17_85 VGND VGND VPWR VPWR sky130_fd_sc_hd__fill_1
XFILLER_0_17_52 VGND VGND VPWR VPWR sky130_fd_sc_hd__decap_4
XTAP_TAPCELL_ROW_31_131 VGND VPWR sky130_fd_sc_hd__tapvpwrvgnd_1
XPHY_EDGE_ROW_10_Left_42 VGND VGND VPWR VPWR sky130_fd_sc_hd__decap_3
XTAP_TAPCELL_ROW_16_99 VGND VPWR sky130_fd_sc_hd__tapvpwrvgnd_1
XFILLER_0_8_83 VGND VGND VPWR VPWR sky130_fd_sc_hd__fill_1
XFILLER_0_30_85 VPWR VGND VPWR VGND sky130_ef_sc_hd__decap_12
XFILLER_0_30_52 VGND VGND VPWR VPWR sky130_fd_sc_hd__decap_8
XFILLER_0_4_19 VGND VGND VPWR VPWR sky130_fd_sc_hd__fill_1
XFILLER_0_14_97 VGND VGND VPWR VPWR sky130_fd_sc_hd__decap_8
XPHY_EDGE_ROW_27_Right_27 VGND VGND VPWR VPWR sky130_fd_sc_hd__decap_3
X_289_ one_second_counter\[4\] _156_ VGND VGND VPWR VPWR _149_ sky130_fd_sc_hd__or2_1
XPHY_EDGE_ROW_18_Right_18 VGND VGND VPWR VPWR sky130_fd_sc_hd__decap_3
XFILLER_0_11_54 VGND VGND VPWR VPWR sky130_fd_sc_hd__fill_2
X_212_ _092_ VGND VGND VPWR VPWR _001_ sky130_fd_sc_hd__clkbuf_1
XFILLER_0_22_20 VGND VGND VPWR VPWR sky130_fd_sc_hd__decap_8
XTAP_TAPCELL_ROW_26_118 VGND VPWR sky130_fd_sc_hd__tapvpwrvgnd_1
XFILLER_0_2_63 VGND VGND VPWR VPWR sky130_fd_sc_hd__decap_8
XTAP_TAPCELL_ROW_22_110 VGND VPWR sky130_fd_sc_hd__tapvpwrvgnd_1
XPHY_EDGE_ROW_0_Right_0 VGND VGND VPWR VPWR sky130_fd_sc_hd__decap_3
XFILLER_0_28_85 VPWR VGND VPWR VGND sky130_ef_sc_hd__decap_12
XFILLER_0_0_101 VGND VGND VPWR VPWR sky130_fd_sc_hd__fill_1
XFILLER_0_30_97 VPWR VGND VPWR VGND sky130_ef_sc_hd__decap_12
XFILLER_0_12_3 VGND VGND VPWR VPWR sky130_fd_sc_hd__decap_4
XFILLER_0_27_107 VGND VGND VPWR VPWR sky130_fd_sc_hd__decap_4
XFILLER_0_1_3 VGND VGND VPWR VPWR sky130_fd_sc_hd__decap_4
X_288_ one_second_counter\[4\] _156_ VGND VGND VPWR VPWR _148_ sky130_fd_sc_hd__nand2_1
XFILLER_0_23_121 VGND VGND VPWR VPWR sky130_fd_sc_hd__fill_1
X_357_ clknet_2_3__leaf_clk _018_ _056_ VGND VGND VPWR VPWR one_second_counter\[26\]
+ sky130_fd_sc_hd__dfrtp_4
Xclkbuf_2_1__f_clk clknet_0_clk VGND VGND VPWR VPWR clknet_2_1__leaf_clk sky130_fd_sc_hd__clkbuf_16
X_211_ _082_ _090_ _091_ VGND VGND VPWR VPWR _092_ sky130_fd_sc_hd__and3_1
XFILLER_0_14_121 VGND VGND VPWR VPWR sky130_fd_sc_hd__fill_1
XFILLER_0_22_43 VGND VGND VPWR VPWR sky130_fd_sc_hd__decap_8
XTAP_TAPCELL_ROW_26_119 VGND VPWR sky130_fd_sc_hd__tapvpwrvgnd_1
XFILLER_0_2_75 VGND VGND VPWR VPWR sky130_fd_sc_hd__decap_8
XFILLER_0_11_113 VPWR VGND VPWR VGND sky130_ef_sc_hd__decap_12
XFILLER_0_3_121 VGND VGND VPWR VPWR sky130_fd_sc_hd__fill_1
XTAP_TAPCELL_ROW_7_80 VGND VPWR sky130_fd_sc_hd__tapvpwrvgnd_1
XFILLER_0_17_65 VPWR VGND VPWR VGND sky130_ef_sc_hd__decap_12
XTAP_TAPCELL_ROW_22_111 VGND VPWR sky130_fd_sc_hd__tapvpwrvgnd_1
XFILLER_0_28_97 VPWR VGND VPWR VGND sky130_ef_sc_hd__decap_12
XFILLER_0_0_113 VPWR VGND VPWR VGND sky130_ef_sc_hd__decap_12
XFILLER_0_25_54 VGND VGND VPWR VPWR sky130_fd_sc_hd__fill_2
XFILLER_0_5_97 VGND VGND VPWR VPWR sky130_fd_sc_hd__decap_3
X_287_ _147_ VGND VGND VPWR VPWR _020_ sky130_fd_sc_hd__clkbuf_1
X_356_ clknet_2_1__leaf_clk _017_ _055_ VGND VGND VPWR VPWR one_second_counter\[25\]
+ sky130_fd_sc_hd__dfrtp_4
XFILLER_0_11_12 VPWR VGND VPWR VGND sky130_ef_sc_hd__decap_12
XPHY_EDGE_ROW_27_Left_59 VGND VGND VPWR VPWR sky130_fd_sc_hd__decap_3
X_210_ one_second_counter\[10\] _087_ VGND VGND VPWR VPWR _091_ sky130_fd_sc_hd__or2_1
XFILLER_0_22_77 VGND VGND VPWR VPWR sky130_fd_sc_hd__decap_6
X_339_ clknet_2_0__leaf_clk _025_ _038_ VGND VGND VPWR VPWR one_second_counter\[8\]
+ sky130_fd_sc_hd__dfrtp_2
XTAP_TAPCELL_ROW_7_81 VGND VPWR sky130_fd_sc_hd__tapvpwrvgnd_1
XFILLER_0_17_22 VGND VGND VPWR VPWR sky130_fd_sc_hd__fill_1
XFILLER_0_17_77 VGND VGND VPWR VPWR sky130_fd_sc_hd__decap_8
XPHY_EDGE_ROW_14_Left_46 VGND VGND VPWR VPWR sky130_fd_sc_hd__decap_3
XFILLER_0_30_11 VGND VGND VPWR VPWR sky130_fd_sc_hd__decap_8
X_355_ clknet_2_1__leaf_clk _016_ _054_ VGND VGND VPWR VPWR one_second_counter\[24\]
+ sky130_fd_sc_hd__dfrtp_2
XFILLER_0_11_24 VGND VGND VPWR VPWR sky130_fd_sc_hd__fill_1
XFILLER_0_11_57 VPWR VGND VPWR VGND sky130_ef_sc_hd__decap_12
X_286_ _156_ _075_ _146_ VGND VGND VPWR VPWR _147_ sky130_fd_sc_hd__and3b_1
XPHY_EDGE_ROW_23_Right_23 VGND VGND VPWR VPWR sky130_fd_sc_hd__decap_3
XPHY_EDGE_ROW_2_Left_34 VGND VGND VPWR VPWR sky130_fd_sc_hd__decap_3
XPHY_EDGE_ROW_14_Right_14 VGND VGND VPWR VPWR sky130_fd_sc_hd__decap_3
X_269_ one_second_counter\[24\] _129_ one_second_counter\[25\] VGND VGND VPWR VPWR
+ _135_ sky130_fd_sc_hd__a21o_1
XFILLER_0_22_56 VGND VGND VPWR VPWR sky130_fd_sc_hd__fill_2
XFILLER_0_2_11 VPWR VGND VPWR VGND sky130_ef_sc_hd__decap_12
X_338_ clknet_2_0__leaf_clk _024_ _037_ VGND VGND VPWR VPWR one_second_counter\[7\]
+ sky130_fd_sc_hd__dfrtp_2
XFILLER_0_28_3 VGND VGND VPWR VPWR sky130_fd_sc_hd__decap_8
XFILLER_0_28_11 VGND VGND VPWR VPWR sky130_fd_sc_hd__decap_3
XPHY_EDGE_ROW_4_Right_4 VGND VGND VPWR VPWR sky130_fd_sc_hd__decap_3
XFILLER_0_8_65 VPWR VGND VPWR VGND sky130_ef_sc_hd__decap_12
XPHY_EDGE_ROW_31_Left_63 VGND VGND VPWR VPWR sky130_fd_sc_hd__decap_3
XFILLER_0_25_89 VGND VGND VPWR VPWR sky130_fd_sc_hd__fill_1
XFILLER_0_25_45 VGND VGND VPWR VPWR sky130_fd_sc_hd__fill_1
XFILLER_0_10_3 VGND VGND VPWR VPWR sky130_fd_sc_hd__decap_8
X_354_ clknet_2_3__leaf_clk _015_ _053_ VGND VGND VPWR VPWR one_second_counter\[23\]
+ sky130_fd_sc_hd__dfrtp_1