*SPEF "ieee 1481-1999"
*DESIGN "TopModule"
*DATE "16:47:23 Thursday June 05, 2025"
*VENDOR "The OpenROAD Project"
*PROGRAM "OpenROAD"
*VERSION "b16bda7e82721d10566ff7e2b68f1ff0be9f9e38"
*DESIGN_FLOW "NAME_SCOPE LOCAL" "PIN_CAP NONE"
*DIVIDER /
*DELIMITER :
*BUS_DELIMITER []
*T_UNIT 1 NS
*C_UNIT 1 PF
*R_UNIT 1 OHM
*L_UNIT 1 HENRY

*NAME_MAP
*3 an[0]
*4 an[1]
*5 an[2]
*6 an[3]
*7 clk
*8 control
*9 reset
*10 net6
*11 net7
*12 net8
*13 net9
*14 net10
*15 net11
*16 net12
*17 _000_
*18 _001_
*19 _002_
*20 _003_
*21 _004_
*22 _005_
*23 _006_
*24 _007_
*25 _008_
*26 _009_
*27 _010_
*28 _011_
*29 _012_
*30 _013_
*31 _014_
*32 _015_
*33 _016_
*34 _017_
*35 _018_
*36 _019_
*37 _020_
*38 _021_
*39 _022_
*40 _023_
*41 _024_
*42 _025_
*43 _026_
*44 _027_
*45 _028_
*46 _029_
*47 _030_
*48 _031_
*49 _032_
*50 _033_
*51 _034_
*52 _035_
*53 _036_
*54 _037_
*55 _038_
*56 _039_
*57 _040_
*58 _041_
*59 _042_
*60 _043_
*61 _044_
*62 _045_
*63 _046_
*64 _047_
*65 _048_
*66 _049_
*67 _050_
*68 _051_
*69 _052_
*70 _053_
*71 _054_
*72 _055_
*73 _056_
*74 _057_
*75 _058_
*76 _059_
*77 _060_
*78 _061_
*79 _062_
*80 _063_
*81 _064_
*82 _065_
*83 _066_
*84 _067_
*85 _068_
*86 _069_
*87 clknet_0_clk
*88 clknet_1_0__leaf_clk
*89 clknet_1_1__leaf_clk
*90 display_module\.counter\[0\]
*91 display_module\.counter\[10\]
*92 display_module\.counter\[11\]
*93 display_module\.counter\[12\]
*94 display_module\.counter\[13\]
*95 display_module\.counter\[14\]
*96 display_module\.counter\[15\]
*97 display_module\.counter\[16\]
*98 display_module\.counter\[17\]
*99 display_module\.counter\[18\]
*100 display_module\.counter\[19\]
*101 display_module\.counter\[1\]
*102 display_module\.counter\[2\]
*103 display_module\.counter\[3\]
*104 display_module\.counter\[4\]
*105 display_module\.counter\[5\]
*106 display_module\.counter\[6\]
*107 display_module\.counter\[7\]
*108 display_module\.counter\[8\]
*109 display_module\.counter\[9\]
*110 display_module\.pos\[0\]
*111 display_module\.pos\[1\]
*112 net1
*113 net13
*114 net14
*115 net15
*116 net16
*117 net17
*118 net18
*119 net19
*120 net2
*121 net20
*122 net21
*123 net22
*124 net23
*125 net24
*126 net25
*127 net26
*128 net27
*129 net28
*130 net29
*131 net3
*132 net30
*133 net31
*134 net32
*135 net33
*136 net34
*137 net4
*138 net5
*139 FILLER_0_0_105
*140 FILLER_0_0_111
*141 FILLER_0_0_113
*142 FILLER_0_0_125
*143 FILLER_0_0_137
*144 FILLER_0_0_141
*145 FILLER_0_0_15
*146 FILLER_0_0_153
*147 FILLER_0_0_165
*148 FILLER_0_0_169
*149 FILLER_0_0_181
*150 FILLER_0_0_189
*151 FILLER_0_0_195
*152 FILLER_0_0_197
*153 FILLER_0_0_203
*154 FILLER_0_0_210
*155 FILLER_0_0_217
*156 FILLER_0_0_223
*157 FILLER_0_0_225
*158 FILLER_0_0_237
*159 FILLER_0_0_249
*160 FILLER_0_0_253
*161 FILLER_0_0_265
*162 FILLER_0_0_27
*163 FILLER_0_0_277
*164 FILLER_0_0_281
*165 FILLER_0_0_286
*166 FILLER_0_0_29
*167 FILLER_0_0_298
*168 FILLER_0_0_3
*169 FILLER_0_0_307
*170 FILLER_0_0_309
*171 FILLER_0_0_321
*172 FILLER_0_0_333
*173 FILLER_0_0_337
*174 FILLER_0_0_349
*175 FILLER_0_0_361
*176 FILLER_0_0_365
*177 FILLER_0_0_377
*178 FILLER_0_0_389
*179 FILLER_0_0_393
*180 FILLER_0_0_405
*181 FILLER_0_0_41
*182 FILLER_0_0_49
*183 FILLER_0_0_55
*184 FILLER_0_0_57
*185 FILLER_0_0_69
*186 FILLER_0_0_81
*187 FILLER_0_0_85
*188 FILLER_0_0_97
*189 FILLER_0_10_109
*190 FILLER_0_10_121
*191 FILLER_0_10_133
*192 FILLER_0_10_139
*193 FILLER_0_10_141
*194 FILLER_0_10_15
*195 FILLER_0_10_153
*196 FILLER_0_10_165
*197 FILLER_0_10_177
*198 FILLER_0_10_189
*199 FILLER_0_10_195
*200 FILLER_0_10_197
*201 FILLER_0_10_209
*202 FILLER_0_10_221
*203 FILLER_0_10_233
*204 FILLER_0_10_245
*205 FILLER_0_10_251
*206 FILLER_0_10_253
*207 FILLER_0_10_265
*208 FILLER_0_10_27
*209 FILLER_0_10_277
*210 FILLER_0_10_289
*211 FILLER_0_10_29
*212 FILLER_0_10_3
*213 FILLER_0_10_301
*214 FILLER_0_10_307
*215 FILLER_0_10_309
*216 FILLER_0_10_321
*217 FILLER_0_10_333
*218 FILLER_0_10_345
*219 FILLER_0_10_357
*220 FILLER_0_10_363
*221 FILLER_0_10_365
*222 FILLER_0_10_377
*223 FILLER_0_10_389
*224 FILLER_0_10_401
*225 FILLER_0_10_41
*226 FILLER_0_10_53
*227 FILLER_0_10_65
*228 FILLER_0_10_77
*229 FILLER_0_10_83
*230 FILLER_0_10_85
*231 FILLER_0_10_97
*232 FILLER_0_11_105
*233 FILLER_0_11_111
*234 FILLER_0_11_113
*235 FILLER_0_11_125
*236 FILLER_0_11_137
*237 FILLER_0_11_149
*238 FILLER_0_11_15
*239 FILLER_0_11_161
*240 FILLER_0_11_167
*241 FILLER_0_11_169
*242 FILLER_0_11_181
*243 FILLER_0_11_193
*244 FILLER_0_11_205
*245 FILLER_0_11_217
*246 FILLER_0_11_223
*247 FILLER_0_11_225
*248 FILLER_0_11_237
*249 FILLER_0_11_249
*250 FILLER_0_11_261
*251 FILLER_0_11_27
*252 FILLER_0_11_273
*253 FILLER_0_11_279
*254 FILLER_0_11_281
*255 FILLER_0_11_293
*256 FILLER_0_11_3
*257 FILLER_0_11_305
*258 FILLER_0_11_317
*259 FILLER_0_11_329
*260 FILLER_0_11_335
*261 FILLER_0_11_337
*262 FILLER_0_11_349
*263 FILLER_0_11_361
*264 FILLER_0_11_373
*265 FILLER_0_11_385
*266 FILLER_0_11_39
*267 FILLER_0_11_391
*268 FILLER_0_11_393
*269 FILLER_0_11_405
*270 FILLER_0_11_51
*271 FILLER_0_11_55
*272 FILLER_0_11_57
*273 FILLER_0_11_69
*274 FILLER_0_11_81
*275 FILLER_0_11_93
*276 FILLER_0_12_109
*277 FILLER_0_12_121
*278 FILLER_0_12_133
*279 FILLER_0_12_139
*280 FILLER_0_12_141
*281 FILLER_0_12_15
*282 FILLER_0_12_153
*283 FILLER_0_12_165
*284 FILLER_0_12_177
*285 FILLER_0_12_189
*286 FILLER_0_12_195
*287 FILLER_0_12_197
*288 FILLER_0_12_209
*289 FILLER_0_12_221
*290 FILLER_0_12_233
*291 FILLER_0_12_245
*292 FILLER_0_12_251
*293 FILLER_0_12_253
*294 FILLER_0_12_265
*295 FILLER_0_12_27
*296 FILLER_0_12_277
*297 FILLER_0_12_289
*298 FILLER_0_12_29
*299 FILLER_0_12_3
*300 FILLER_0_12_301
*301 FILLER_0_12_307
*302 FILLER_0_12_309
*303 FILLER_0_12_321
*304 FILLER_0_12_333
*305 FILLER_0_12_345
*306 FILLER_0_12_357
*307 FILLER_0_12_363
*308 FILLER_0_12_365
*309 FILLER_0_12_377
*310 FILLER_0_12_389
*311 FILLER_0_12_401
*312 FILLER_0_12_41
*313 FILLER_0_12_53
*314 FILLER_0_12_65
*315 FILLER_0_12_77
*316 FILLER_0_12_83
*317 FILLER_0_12_85
*318 FILLER_0_12_97
*319 FILLER_0_13_105
*320 FILLER_0_13_111
*321 FILLER_0_13_113
*322 FILLER_0_13_125
*323 FILLER_0_13_137
*324 FILLER_0_13_149
*325 FILLER_0_13_15
*326 FILLER_0_13_161
*327 FILLER_0_13_167
*328 FILLER_0_13_169
*329 FILLER_0_13_181
*330 FILLER_0_13_193
*331 FILLER_0_13_205
*332 FILLER_0_13_217
*333 FILLER_0_13_223
*334 FILLER_0_13_225
*335 FILLER_0_13_237
*336 FILLER_0_13_249
*337 FILLER_0_13_261
*338 FILLER_0_13_27
*339 FILLER_0_13_273
*340 FILLER_0_13_279
*341 FILLER_0_13_281
*342 FILLER_0_13_293
*343 FILLER_0_13_3
*344 FILLER_0_13_305
*345 FILLER_0_13_317
*346 FILLER_0_13_329
*347 FILLER_0_13_335
*348 FILLER_0_13_337
*349 FILLER_0_13_349
*350 FILLER_0_13_361
*351 FILLER_0_13_373
*352 FILLER_0_13_385
*353 FILLER_0_13_39
*354 FILLER_0_13_391
*355 FILLER_0_13_393
*356 FILLER_0_13_405
*357 FILLER_0_13_51
*358 FILLER_0_13_55
*359 FILLER_0_13_57
*360 FILLER_0_13_69
*361 FILLER_0_13_81
*362 FILLER_0_13_93
*363 FILLER_0_14_109
*364 FILLER_0_14_121
*365 FILLER_0_14_133
*366 FILLER_0_14_139
*367 FILLER_0_14_141
*368 FILLER_0_14_15
*369 FILLER_0_14_153
*370 FILLER_0_14_165
*371 FILLER_0_14_177
*372 FILLER_0_14_189
*373 FILLER_0_14_195
*374 FILLER_0_14_197
*375 FILLER_0_14_209
*376 FILLER_0_14_221
*377 FILLER_0_14_233
*378 FILLER_0_14_245
*379 FILLER_0_14_251
*380 FILLER_0_14_253
*381 FILLER_0_14_265
*382 FILLER_0_14_27
*383 FILLER_0_14_277
*384 FILLER_0_14_289
*385 FILLER_0_14_29
*386 FILLER_0_14_3
*387 FILLER_0_14_301
*388 FILLER_0_14_307
*389 FILLER_0_14_309
*390 FILLER_0_14_321
*391 FILLER_0_14_333
*392 FILLER_0_14_345
*393 FILLER_0_14_357
*394 FILLER_0_14_363
*395 FILLER_0_14_365
*396 FILLER_0_14_377
*397 FILLER_0_14_389
*398 FILLER_0_14_401
*399 FILLER_0_14_41
*400 FILLER_0_14_53
*401 FILLER_0_14_65
*402 FILLER_0_14_77
*403 FILLER_0_14_83
*404 FILLER_0_14_85
*405 FILLER_0_14_97
*406 FILLER_0_15_105
*407 FILLER_0_15_111
*408 FILLER_0_15_113
*409 FILLER_0_15_125
*410 FILLER_0_15_137
*411 FILLER_0_15_149
*412 FILLER_0_15_15
*413 FILLER_0_15_161
*414 FILLER_0_15_167
*415 FILLER_0_15_169
*416 FILLER_0_15_181
*417 FILLER_0_15_193
*418 FILLER_0_15_205
*419 FILLER_0_15_217
*420 FILLER_0_15_223
*421 FILLER_0_15_225
*422 FILLER_0_15_237
*423 FILLER_0_15_249
*424 FILLER_0_15_261
*425 FILLER_0_15_27
*426 FILLER_0_15_273
*427 FILLER_0_15_279
*428 FILLER_0_15_281
*429 FILLER_0_15_293
*430 FILLER_0_15_3
*431 FILLER_0_15_305
*432 FILLER_0_15_317
*433 FILLER_0_15_329
*434 FILLER_0_15_335
*435 FILLER_0_15_337
*436 FILLER_0_15_349
*437 FILLER_0_15_361
*438 FILLER_0_15_373
*439 FILLER_0_15_385
*440 FILLER_0_15_39
*441 FILLER_0_15_391
*442 FILLER_0_15_393
*443 FILLER_0_15_401
*444 FILLER_0_15_51
*445 FILLER_0_15_55
*446 FILLER_0_15_57
*447 FILLER_0_15_69
*448 FILLER_0_15_81
*449 FILLER_0_15_93
*450 FILLER_0_16_109
*451 FILLER_0_16_121
*452 FILLER_0_16_133
*453 FILLER_0_16_139
*454 FILLER_0_16_141
*455 FILLER_0_16_15
*456 FILLER_0_16_153
*457 FILLER_0_16_165
*458 FILLER_0_16_177
*459 FILLER_0_16_189
*460 FILLER_0_16_195
*461 FILLER_0_16_197
*462 FILLER_0_16_209
*463 FILLER_0_16_221
*464 FILLER_0_16_233
*465 FILLER_0_16_245
*466 FILLER_0_16_251
*467 FILLER_0_16_253
*468 FILLER_0_16_265
*469 FILLER_0_16_27
*470 FILLER_0_16_277
*471 FILLER_0_16_289
*472 FILLER_0_16_29
*473 FILLER_0_16_3
*474 FILLER_0_16_301
*475 FILLER_0_16_307
*476 FILLER_0_16_309
*477 FILLER_0_16_321
*478 FILLER_0_16_333
*479 FILLER_0_16_345
*480 FILLER_0_16_357
*481 FILLER_0_16_363
*482 FILLER_0_16_365
*483 FILLER_0_16_377
*484 FILLER_0_16_389
*485 FILLER_0_16_401
*486 FILLER_0_16_41
*487 FILLER_0_16_53
*488 FILLER_0_16_65
*489 FILLER_0_16_77
*490 FILLER_0_16_83
*491 FILLER_0_16_85
*492 FILLER_0_16_97
*493 FILLER_0_17_105
*494 FILLER_0_17_111
*495 FILLER_0_17_113
*496 FILLER_0_17_125
*497 FILLER_0_17_137
*498 FILLER_0_17_149
*499 FILLER_0_17_15
*500 FILLER_0_17_161
*501 FILLER_0_17_167
*502 FILLER_0_17_169
*503 FILLER_0_17_181
*504 FILLER_0_17_193
*505 FILLER_0_17_205
*506 FILLER_0_17_217
*507 FILLER_0_17_223
*508 FILLER_0_17_225
*509 FILLER_0_17_237
*510 FILLER_0_17_249
*511 FILLER_0_17_261
*512 FILLER_0_17_27
*513 FILLER_0_17_273
*514 FILLER_0_17_279
*515 FILLER_0_17_281
*516 FILLER_0_17_293
*517 FILLER_0_17_3
*518 FILLER_0_17_305
*519 FILLER_0_17_317
*520 FILLER_0_17_329
*521 FILLER_0_17_335
*522 FILLER_0_17_337
*523 FILLER_0_17_349
*524 FILLER_0_17_361
*525 FILLER_0_17_373
*526 FILLER_0_17_385
*527 FILLER_0_17_39
*528 FILLER_0_17_391
*529 FILLER_0_17_393
*530 FILLER_0_17_405
*531 FILLER_0_17_51
*532 FILLER_0_17_55
*533 FILLER_0_17_57
*534 FILLER_0_17_69
*535 FILLER_0_17_81
*536 FILLER_0_17_93
*537 FILLER_0_18_109
*538 FILLER_0_18_121
*539 FILLER_0_18_133
*540 FILLER_0_18_139
*541 FILLER_0_18_141
*542 FILLER_0_18_15
*543 FILLER_0_18_153
*544 FILLER_0_18_165
*545 FILLER_0_18_177
*546 FILLER_0_18_189
*547 FILLER_0_18_195
*548 FILLER_0_18_197
*549 FILLER_0_18_209
*550 FILLER_0_18_221
*551 FILLER_0_18_233
*552 FILLER_0_18_245
*553 FILLER_0_18_251
*554 FILLER_0_18_253
*555 FILLER_0_18_265
*556 FILLER_0_18_27
*557 FILLER_0_18_277
*558 FILLER_0_18_289
*559 FILLER_0_18_29
*560 FILLER_0_18_3
*561 FILLER_0_18_301
*562 FILLER_0_18_307
*563 FILLER_0_18_309
*564 FILLER_0_18_321
*565 FILLER_0_18_333
*566 FILLER_0_18_345
*567 FILLER_0_18_357
*568 FILLER_0_18_363
*569 FILLER_0_18_365
*570 FILLER_0_18_377
*571 FILLER_0_18_389
*572 FILLER_0_18_401
*573 FILLER_0_18_41
*574 FILLER_0_18_53
*575 FILLER_0_18_65
*576 FILLER_0_18_77
*577 FILLER_0_18_83
*578 FILLER_0_18_85
*579 FILLER_0_18_97
*580 FILLER_0_19_105
*581 FILLER_0_19_111
*582 FILLER_0_19_113
*583 FILLER_0_19_125
*584 FILLER_0_19_137
*585 FILLER_0_19_149
*586 FILLER_0_19_15
*587 FILLER_0_19_161
*588 FILLER_0_19_167
*589 FILLER_0_19_169
*590 FILLER_0_19_181
*591 FILLER_0_19_193
*592 FILLER_0_19_205
*593 FILLER_0_19_217
*594 FILLER_0_19_223
*595 FILLER_0_19_225
*596 FILLER_0_19_237
*597 FILLER_0_19_249
*598 FILLER_0_19_261
*599 FILLER_0_19_27
*600 FILLER_0_19_273
*601 FILLER_0_19_279
*602 FILLER_0_19_281
*603 FILLER_0_19_293
*604 FILLER_0_19_3
*605 FILLER_0_19_305
*606 FILLER_0_19_317
*607 FILLER_0_19_329
*608 FILLER_0_19_335
*609 FILLER_0_19_337
*610 FILLER_0_19_349
*611 FILLER_0_19_361
*612 FILLER_0_19_373
*613 FILLER_0_19_385
*614 FILLER_0_19_39
*615 FILLER_0_19_391
*616 FILLER_0_19_393
*617 FILLER_0_19_405
*618 FILLER_0_19_51
*619 FILLER_0_19_55
*620 FILLER_0_19_57
*621 FILLER_0_19_69
*622 FILLER_0_19_81
*623 FILLER_0_19_93
*624 FILLER_0_1_105
*625 FILLER_0_1_111
*626 FILLER_0_1_113
*627 FILLER_0_1_125
*628 FILLER_0_1_137
*629 FILLER_0_1_149
*630 FILLER_0_1_15
*631 FILLER_0_1_161
*632 FILLER_0_1_167
*633 FILLER_0_1_169
*634 FILLER_0_1_181
*635 FILLER_0_1_193
*636 FILLER_0_1_205
*637 FILLER_0_1_217
*638 FILLER_0_1_223
*639 FILLER_0_1_225
*640 FILLER_0_1_237
*641 FILLER_0_1_249
*642 FILLER_0_1_261
*643 FILLER_0_1_27
*644 FILLER_0_1_273
*645 FILLER_0_1_279
*646 FILLER_0_1_281
*647 FILLER_0_1_293
*648 FILLER_0_1_3
*649 FILLER_0_1_305
*650 FILLER_0_1_317
*651 FILLER_0_1_329
*652 FILLER_0_1_335
*653 FILLER_0_1_337
*654 FILLER_0_1_349
*655 FILLER_0_1_361
*656 FILLER_0_1_373
*657 FILLER_0_1_385
*658 FILLER_0_1_39
*659 FILLER_0_1_391
*660 FILLER_0_1_393
*661 FILLER_0_1_405
*662 FILLER_0_1_51
*663 FILLER_0_1_55
*664 FILLER_0_1_57
*665 FILLER_0_1_69
*666 FILLER_0_1_81
*667 FILLER_0_1_93
*668 FILLER_0_20_109
*669 FILLER_0_20_121
*670 FILLER_0_20_133
*671 FILLER_0_20_139
*672 FILLER_0_20_141
*673 FILLER_0_20_15
*674 FILLER_0_20_153
*675 FILLER_0_20_165
*676 FILLER_0_20_177
*677 FILLER_0_20_189
*678 FILLER_0_20_195
*679 FILLER_0_20_197
*680 FILLER_0_20_209
*681 FILLER_0_20_221
*682 FILLER_0_20_233
*683 FILLER_0_20_245
*684 FILLER_0_20_251
*685 FILLER_0_20_253
*686 FILLER_0_20_265
*687 FILLER_0_20_27
*688 FILLER_0_20_277
*689 FILLER_0_20_289
*690 FILLER_0_20_29
*691 FILLER_0_20_3
*692 FILLER_0_20_301
*693 FILLER_0_20_307
*694 FILLER_0_20_309
*695 FILLER_0_20_321
*696 FILLER_0_20_333
*697 FILLER_0_20_345
*698 FILLER_0_20_357
*699 FILLER_0_20_363
*700 FILLER_0_20_365
*701 FILLER_0_20_377
*702 FILLER_0_20_389
*703 FILLER_0_20_401
*704 FILLER_0_20_41
*705 FILLER_0_20_53
*706 FILLER_0_20_65
*707 FILLER_0_20_77
*708 FILLER_0_20_83
*709 FILLER_0_20_85
*710 FILLER_0_20_97
*711 FILLER_0_21_105
*712 FILLER_0_21_111
*713 FILLER_0_21_113
*714 FILLER_0_21_125
*715 FILLER_0_21_137
*716 FILLER_0_21_149
*717 FILLER_0_21_15
*718 FILLER_0_21_161
*719 FILLER_0_21_167
*720 FILLER_0_21_169
*721 FILLER_0_21_181
*722 FILLER_0_21_193
*723 FILLER_0_21_205
*724 FILLER_0_21_217
*725 FILLER_0_21_223
*726 FILLER_0_21_225
*727 FILLER_0_21_237
*728 FILLER_0_21_249
*729 FILLER_0_21_261
*730 FILLER_0_21_27
*731 FILLER_0_21_273
*732 FILLER_0_21_279
*733 FILLER_0_21_281
*734 FILLER_0_21_293
*735 FILLER_0_21_3
*736 FILLER_0_21_305
*737 FILLER_0_21_317
*738 FILLER_0_21_329
*739 FILLER_0_21_335
*740 FILLER_0_21_337
*741 FILLER_0_21_349
*742 FILLER_0_21_361
*743 FILLER_0_21_373
*744 FILLER_0_21_385
*745 FILLER_0_21_39
*746 FILLER_0_21_391
*747 FILLER_0_21_393
*748 FILLER_0_21_405
*749 FILLER_0_21_51
*750 FILLER_0_21_55
*751 FILLER_0_21_57
*752 FILLER_0_21_69
*753 FILLER_0_21_81
*754 FILLER_0_21_93
*755 FILLER_0_22_109
*756 FILLER_0_22_121
*757 FILLER_0_22_133
*758 FILLER_0_22_139
*759 FILLER_0_22_141
*760 FILLER_0_22_15
*761 FILLER_0_22_153
*762 FILLER_0_22_165
*763 FILLER_0_22_177
*764 FILLER_0_22_189
*765 FILLER_0_22_195
*766 FILLER_0_22_197
*767 FILLER_0_22_209
*768 FILLER_0_22_221
*769 FILLER_0_22_233
*770 FILLER_0_22_245
*771 FILLER_0_22_251
*772 FILLER_0_22_253
*773 FILLER_0_22_265
*774 FILLER_0_22_27
*775 FILLER_0_22_277
*776 FILLER_0_22_289
*777 FILLER_0_22_29
*778 FILLER_0_22_3
*779 FILLER_0_22_301
*780 FILLER_0_22_307
*781 FILLER_0_22_309
*782 FILLER_0_22_321
*783 FILLER_0_22_333
*784 FILLER_0_22_345
*785 FILLER_0_22_357
*786 FILLER_0_22_363
*787 FILLER_0_22_365
*788 FILLER_0_22_377
*789 FILLER_0_22_389
*790 FILLER_0_22_401
*791 FILLER_0_22_41
*792 FILLER_0_22_53
*793 FILLER_0_22_65
*794 FILLER_0_22_77
*795 FILLER_0_22_83
*796 FILLER_0_22_85
*797 FILLER_0_22_97
*798 FILLER_0_23_105
*799 FILLER_0_23_111
*800 FILLER_0_23_113
*801 FILLER_0_23_125
*802 FILLER_0_23_137
*803 FILLER_0_23_149
*804 FILLER_0_23_15
*805 FILLER_0_23_161
*806 FILLER_0_23_167
*807 FILLER_0_23_169
*808 FILLER_0_23_181
*809 FILLER_0_23_193
*810 FILLER_0_23_205
*811 FILLER_0_23_217
*812 FILLER_0_23_223
*813 FILLER_0_23_225
*814 FILLER_0_23_237
*815 FILLER_0_23_249
*816 FILLER_0_23_261
*817 FILLER_0_23_27
*818 FILLER_0_23_273
*819 FILLER_0_23_279
*820 FILLER_0_23_281
*821 FILLER_0_23_293
*822 FILLER_0_23_3
*823 FILLER_0_23_305
*824 FILLER_0_23_317
*825 FILLER_0_23_329
*826 FILLER_0_23_335
*827 FILLER_0_23_337
*828 FILLER_0_23_349
*829 FILLER_0_23_361
*830 FILLER_0_23_373
*831 FILLER_0_23_385
*832 FILLER_0_23_39
*833 FILLER_0_23_391
*834 FILLER_0_23_393
*835 FILLER_0_23_405
*836 FILLER_0_23_51
*837 FILLER_0_23_55
*838 FILLER_0_23_57
*839 FILLER_0_23_69
*840 FILLER_0_23_81
*841 FILLER_0_23_93
*842 FILLER_0_24_109
*843 FILLER_0_24_121
*844 FILLER_0_24_133
*845 FILLER_0_24_139
*846 FILLER_0_24_141
*847 FILLER_0_24_15
*848 FILLER_0_24_153
*849 FILLER_0_24_165
*850 FILLER_0_24_177
*851 FILLER_0_24_189
*852 FILLER_0_24_195
*853 FILLER_0_24_197
*854 FILLER_0_24_201
*855 FILLER_0_24_213
*856 FILLER_0_24_225
*857 FILLER_0_24_237
*858 FILLER_0_24_249
*859 FILLER_0_24_253
*860 FILLER_0_24_265
*861 FILLER_0_24_27
*862 FILLER_0_24_277
*863 FILLER_0_24_289
*864 FILLER_0_24_29
*865 FILLER_0_24_3
*866 FILLER_0_24_301
*867 FILLER_0_24_307
*868 FILLER_0_24_309
*869 FILLER_0_24_321
*870 FILLER_0_24_333
*871 FILLER_0_24_345
*872 FILLER_0_24_357
*873 FILLER_0_24_363
*874 FILLER_0_24_365
*875 FILLER_0_24_377
*876 FILLER_0_24_389
*877 FILLER_0_24_401
*878 FILLER_0_24_41
*879 FILLER_0_24_53
*880 FILLER_0_24_65
*881 FILLER_0_24_77
*882 FILLER_0_24_83
*883 FILLER_0_24_85
*884 FILLER_0_24_97
*885 FILLER_0_25_105
*886 FILLER_0_25_111
*887 FILLER_0_25_113
*888 FILLER_0_25_125
*889 FILLER_0_25_137
*890 FILLER_0_25_149
*891 FILLER_0_25_15
*892 FILLER_0_25_161
*893 FILLER_0_25_167
*894 FILLER_0_25_169
*895 FILLER_0_25_190
*896 FILLER_0_25_209
*897 FILLER_0_25_221
*898 FILLER_0_25_225
*899 FILLER_0_25_237
*900 FILLER_0_25_249
*901 FILLER_0_25_261
*902 FILLER_0_25_27
*903 FILLER_0_25_273
*904 FILLER_0_25_279
*905 FILLER_0_25_281
*906 FILLER_0_25_293
*907 FILLER_0_25_3
*908 FILLER_0_25_305
*909 FILLER_0_25_317
*910 FILLER_0_25_329
*911 FILLER_0_25_335
*912 FILLER_0_25_337
*913 FILLER_0_25_349
*914 FILLER_0_25_361
*915 FILLER_0_25_373
*916 FILLER_0_25_385
*917 FILLER_0_25_39
*918 FILLER_0_25_391
*919 FILLER_0_25_393
*920 FILLER_0_25_405
*921 FILLER_0_25_51
*922 FILLER_0_25_55
*923 FILLER_0_25_57
*924 FILLER_0_25_69
*925 FILLER_0_25_81
*926 FILLER_0_25_93
*927 FILLER_0_26_109
*928 FILLER_0_26_121
*929 FILLER_0_26_133
*930 FILLER_0_26_139
*931 FILLER_0_26_141
*932 FILLER_0_26_15
*933 FILLER_0_26_153
*934 FILLER_0_26_208
*935 FILLER_0_26_214
*936 FILLER_0_26_231
*937 FILLER_0_26_243
*938 FILLER_0_26_251
*939 FILLER_0_26_253
*940 FILLER_0_26_265
*941 FILLER_0_26_27
*942 FILLER_0_26_277
*943 FILLER_0_26_289
*944 FILLER_0_26_29
*945 FILLER_0_26_3
*946 FILLER_0_26_301
*947 FILLER_0_26_307
*948 FILLER_0_26_309
*949 FILLER_0_26_321
*950 FILLER_0_26_333
*951 FILLER_0_26_345
*952 FILLER_0_26_357
*953 FILLER_0_26_363
*954 FILLER_0_26_365
*955 FILLER_0_26_377
*956 FILLER_0_26_389
*957 FILLER_0_26_401
*958 FILLER_0_26_41
*959 FILLER_0_26_53
*960 FILLER_0_26_65
*961 FILLER_0_26_77
*962 FILLER_0_26_83
*963 FILLER_0_26_85
*964 FILLER_0_26_97
*965 FILLER_0_27_105
*966 FILLER_0_27_111
*967 FILLER_0_27_113
*968 FILLER_0_27_125
*969 FILLER_0_27_137
*970 FILLER_0_27_149
*971 FILLER_0_27_15
*972 FILLER_0_27_161
*973 FILLER_0_27_167
*974 FILLER_0_27_169
*975 FILLER_0_27_175
*976 FILLER_0_27_184
*977 FILLER_0_27_201
*978 FILLER_0_27_209
*979 FILLER_0_27_219
*980 FILLER_0_27_223
*981 FILLER_0_27_243
*982 FILLER_0_27_255
*983 FILLER_0_27_267
*984 FILLER_0_27_27
*985 FILLER_0_27_279
*986 FILLER_0_27_281
*987 FILLER_0_27_293
*988 FILLER_0_27_3
*989 FILLER_0_27_305
*990 FILLER_0_27_317
*991 FILLER_0_27_329
*992 FILLER_0_27_335
*993 FILLER_0_27_337
*994 FILLER_0_27_349
*995 FILLER_0_27_361
*996 FILLER_0_27_373
*997 FILLER_0_27_385
*998 FILLER_0_27_39
*999 FILLER_0_27_391
*1000 FILLER_0_27_393
*1001 FILLER_0_27_405
*1002 FILLER_0_27_51
*1003 FILLER_0_27_55
*1004 FILLER_0_27_57
*1005 FILLER_0_27_69
*1006 FILLER_0_27_81
*1007 FILLER_0_27_93
*1008 FILLER_0_28_109
*1009 FILLER_0_28_121
*1010 FILLER_0_28_133
*1011 FILLER_0_28_139
*1012 FILLER_0_28_141
*1013 FILLER_0_28_15
*1014 FILLER_0_28_153
*1015 FILLER_0_28_165
*1016 FILLER_0_28_177
*1017 FILLER_0_28_189
*1018 FILLER_0_28_195
*1019 FILLER_0_28_197
*1020 FILLER_0_28_204
*1021 FILLER_0_28_208
*1022 FILLER_0_28_219
*1023 FILLER_0_28_231
*1024 FILLER_0_28_235
*1025 FILLER_0_28_253
*1026 FILLER_0_28_265
*1027 FILLER_0_28_27
*1028 FILLER_0_28_277
*1029 FILLER_0_28_289
*1030 FILLER_0_28_29
*1031 FILLER_0_28_3
*1032 FILLER_0_28_301
*1033 FILLER_0_28_307
*1034 FILLER_0_28_309
*1035 FILLER_0_28_321
*1036 FILLER_0_28_333
*1037 FILLER_0_28_345
*1038 FILLER_0_28_357
*1039 FILLER_0_28_363
*1040 FILLER_0_28_365
*1041 FILLER_0_28_377
*1042 FILLER_0_28_389
*1043 FILLER_0_28_401
*1044 FILLER_0_28_41
*1045 FILLER_0_28_53
*1046 FILLER_0_28_65
*1047 FILLER_0_28_77
*1048 FILLER_0_28_83
*1049 FILLER_0_28_85
*1050 FILLER_0_28_97
*1051 FILLER_0_29_105
*1052 FILLER_0_29_111
*1053 FILLER_0_29_113
*1054 FILLER_0_29_125
*1055 FILLER_0_29_137
*1056 FILLER_0_29_149
*1057 FILLER_0_29_15
*1058 FILLER_0_29_161
*1059 FILLER_0_29_167
*1060 FILLER_0_29_176
*1061 FILLER_0_29_184
*1062 FILLER_0_29_192
*1063 FILLER_0_29_203
*1064 FILLER_0_29_220
*1065 FILLER_0_29_240
*1066 FILLER_0_29_260
*1067 FILLER_0_29_27
*1068 FILLER_0_29_272
*1069 FILLER_0_29_281
*1070 FILLER_0_29_293
*1071 FILLER_0_29_3
*1072 FILLER_0_29_305
*1073 FILLER_0_29_317
*1074 FILLER_0_29_329
*1075 FILLER_0_29_335
*1076 FILLER_0_29_337
*1077 FILLER_0_29_349
*1078 FILLER_0_29_361
*1079 FILLER_0_29_373
*1080 FILLER_0_29_385
*1081 FILLER_0_29_39
*1082 FILLER_0_29_391
*1083 FILLER_0_29_393
*1084 FILLER_0_29_405
*1085 FILLER_0_29_51
*1086 FILLER_0_29_55
*1087 FILLER_0_29_57
*1088 FILLER_0_29_69
*1089 FILLER_0_29_81
*1090 FILLER_0_29_93
*1091 FILLER_0_2_109
*1092 FILLER_0_2_121
*1093 FILLER_0_2_133
*1094 FILLER_0_2_139
*1095 FILLER_0_2_141
*1096 FILLER_0_2_15
*1097 FILLER_0_2_153
*1098 FILLER_0_2_165
*1099 FILLER_0_2_177
*1100 FILLER_0_2_189
*1101 FILLER_0_2_195
*1102 FILLER_0_2_197
*1103 FILLER_0_2_209
*1104 FILLER_0_2_221
*1105 FILLER_0_2_233
*1106 FILLER_0_2_245
*1107 FILLER_0_2_251
*1108 FILLER_0_2_253
*1109 FILLER_0_2_265
*1110 FILLER_0_2_27
*1111 FILLER_0_2_277
*1112 FILLER_0_2_289
*1113 FILLER_0_2_29
*1114 FILLER_0_2_3
*1115 FILLER_0_2_301
*1116 FILLER_0_2_307
*1117 FILLER_0_2_309
*1118 FILLER_0_2_321
*1119 FILLER_0_2_333
*1120 FILLER_0_2_345
*1121 FILLER_0_2_357
*1122 FILLER_0_2_363
*1123 FILLER_0_2_365
*1124 FILLER_0_2_377
*1125 FILLER_0_2_389
*1126 FILLER_0_2_401
*1127 FILLER_0_2_41
*1128 FILLER_0_2_53
*1129 FILLER_0_2_65
*1130 FILLER_0_2_77
*1131 FILLER_0_2_83
*1132 FILLER_0_2_85
*1133 FILLER_0_2_97
*1134 FILLER_0_30_109
*1135 FILLER_0_30_121
*1136 FILLER_0_30_133
*1137 FILLER_0_30_139
*1138 FILLER_0_30_141
*1139 FILLER_0_30_15
*1140 FILLER_0_30_153
*1141 FILLER_0_30_165
*1142 FILLER_0_30_193
*1143 FILLER_0_30_213
*1144 FILLER_0_30_220
*1145 FILLER_0_30_249
*1146 FILLER_0_30_253
*1147 FILLER_0_30_265
*1148 FILLER_0_30_27
*1149 FILLER_0_30_277
*1150 FILLER_0_30_289
*1151 FILLER_0_30_29
*1152 FILLER_0_30_3
*1153 FILLER_0_30_301
*1154 FILLER_0_30_307
*1155 FILLER_0_30_309
*1156 FILLER_0_30_321
*1157 FILLER_0_30_333
*1158 FILLER_0_30_345
*1159 FILLER_0_30_357
*1160 FILLER_0_30_363
*1161 FILLER_0_30_365
*1162 FILLER_0_30_377
*1163 FILLER_0_30_389
*1164 FILLER_0_30_401
*1165 FILLER_0_30_41
*1166 FILLER_0_30_53
*1167 FILLER_0_30_65
*1168 FILLER_0_30_77
*1169 FILLER_0_30_83
*1170 FILLER_0_30_85
*1171 FILLER_0_30_97
*1172 FILLER_0_31_105
*1173 FILLER_0_31_111
*1174 FILLER_0_31_113
*1175 FILLER_0_31_125
*1176 FILLER_0_31_137
*1177 FILLER_0_31_149
*1178 FILLER_0_31_15
*1179 FILLER_0_31_161
*1180 FILLER_0_31_167
*1181 FILLER_0_31_169
*1182 FILLER_0_31_181
*1183 FILLER_0_31_187
*1184 FILLER_0_31_197
*1185 FILLER_0_31_208
*1186 FILLER_0_31_216
*1187 FILLER_0_31_221
*1188 FILLER_0_31_225
*1189 FILLER_0_31_252
*1190 FILLER_0_31_264
*1191 FILLER_0_31_27
*1192 FILLER_0_31_276
*1193 FILLER_0_31_281
*1194 FILLER_0_31_293
*1195 FILLER_0_31_3
*1196 FILLER_0_31_305
*1197 FILLER_0_31_317
*1198 FILLER_0_31_329
*1199 FILLER_0_31_335
*1200 FILLER_0_31_337
*1201 FILLER_0_31_349
*1202 FILLER_0_31_361
*1203 FILLER_0_31_373
*1204 FILLER_0_31_385
*1205 FILLER_0_31_39
*1206 FILLER_0_31_391
*1207 FILLER_0_31_393
*1208 FILLER_0_31_405
*1209 FILLER_0_31_51
*1210 FILLER_0_31_55
*1211 FILLER_0_31_57
*1212 FILLER_0_31_69
*1213 FILLER_0_31_81
*1214 FILLER_0_31_93
*1215 FILLER_0_32_109
*1216 FILLER_0_32_121
*1217 FILLER_0_32_133
*1218 FILLER_0_32_139
*1219 FILLER_0_32_141
*1220 FILLER_0_32_15
*1221 FILLER_0_32_153
*1222 FILLER_0_32_165
*1223 FILLER_0_32_177
*1224 FILLER_0_32_181
*1225 FILLER_0_32_213
*1226 FILLER_0_32_230
*1227 FILLER_0_32_261
*1228 FILLER_0_32_27
*1229 FILLER_0_32_273
*1230 FILLER_0_32_285
*1231 FILLER_0_32_29
*1232 FILLER_0_32_297
*1233 FILLER_0_32_3
*1234 FILLER_0_32_305
*1235 FILLER_0_32_309
*1236 FILLER_0_32_321
*1237 FILLER_0_32_333
*1238 FILLER_0_32_345
*1239 FILLER_0_32_357
*1240 FILLER_0_32_363
*1241 FILLER_0_32_365
*1242 FILLER_0_32_377
*1243 FILLER_0_32_389
*1244 FILLER_0_32_401
*1245 FILLER_0_32_41
*1246 FILLER_0_32_53
*1247 FILLER_0_32_65
*1248 FILLER_0_32_77
*1249 FILLER_0_32_83
*1250 FILLER_0_32_85
*1251 FILLER_0_32_97
*1252 FILLER_0_33_105
*1253 FILLER_0_33_111
*1254 FILLER_0_33_113
*1255 FILLER_0_33_125
*1256 FILLER_0_33_137
*1257 FILLER_0_33_149
*1258 FILLER_0_33_15
*1259 FILLER_0_33_161
*1260 FILLER_0_33_167
*1261 FILLER_0_33_169
*1262 FILLER_0_33_202
*1263 FILLER_0_33_225
*1264 FILLER_0_33_263
*1265 FILLER_0_33_27
*1266 FILLER_0_33_275
*1267 FILLER_0_33_279
*1268 FILLER_0_33_281
*1269 FILLER_0_33_293
*1270 FILLER_0_33_3
*1271 FILLER_0_33_305
*1272 FILLER_0_33_317
*1273 FILLER_0_33_329
*1274 FILLER_0_33_335
*1275 FILLER_0_33_337
*1276 FILLER_0_33_349
*1277 FILLER_0_33_361
*1278 FILLER_0_33_373
*1279 FILLER_0_33_385
*1280 FILLER_0_33_39
*1281 FILLER_0_33_391
*1282 FILLER_0_33_393
*1283 FILLER_0_33_405
*1284 FILLER_0_33_51
*1285 FILLER_0_33_55
*1286 FILLER_0_33_57
*1287 FILLER_0_33_69
*1288 FILLER_0_33_81
*1289 FILLER_0_33_93
*1290 FILLER_0_34_109
*1291 FILLER_0_34_121
*1292 FILLER_0_34_133
*1293 FILLER_0_34_139
*1294 FILLER_0_34_141
*1295 FILLER_0_34_15
*1296 FILLER_0_34_153
*1297 FILLER_0_34_161
*1298 FILLER_0_34_195
*1299 FILLER_0_34_197
*1300 FILLER_0_34_217
*1301 FILLER_0_34_229
*1302 FILLER_0_34_269
*1303 FILLER_0_34_27
*1304 FILLER_0_34_281
*1305 FILLER_0_34_29
*1306 FILLER_0_34_293
*1307 FILLER_0_34_3
*1308 FILLER_0_34_305
*1309 FILLER_0_34_309
*1310 FILLER_0_34_321
*1311 FILLER_0_34_333
*1312 FILLER_0_34_345
*1313 FILLER_0_34_357
*1314 FILLER_0_34_363
*1315 FILLER_0_34_365
*1316 FILLER_0_34_377
*1317 FILLER_0_34_389
*1318 FILLER_0_34_401
*1319 FILLER_0_34_41
*1320 FILLER_0_34_53
*1321 FILLER_0_34_65
*1322 FILLER_0_34_77
*1323 FILLER_0_34_83
*1324 FILLER_0_34_85
*1325 FILLER_0_34_97
*1326 FILLER_0_35_105
*1327 FILLER_0_35_111
*1328 FILLER_0_35_113
*1329 FILLER_0_35_125
*1330 FILLER_0_35_137
*1331 FILLER_0_35_149
*1332 FILLER_0_35_15
*1333 FILLER_0_35_161
*1334 FILLER_0_35_167
*1335 FILLER_0_35_169
*1336 FILLER_0_35_185
*1337 FILLER_0_35_189
*1338 FILLER_0_35_210
*1339 FILLER_0_35_222
*1340 FILLER_0_35_225
*1341 FILLER_0_35_242
*1342 FILLER_0_35_250
*1343 FILLER_0_35_260
*1344 FILLER_0_35_27
*1345 FILLER_0_35_272
*1346 FILLER_0_35_281
*1347 FILLER_0_35_293
*1348 FILLER_0_35_3
*1349 FILLER_0_35_305
*1350 FILLER_0_35_317
*1351 FILLER_0_35_329
*1352 FILLER_0_35_335
*1353 FILLER_0_35_337
*1354 FILLER_0_35_349
*1355 FILLER_0_35_361
*1356 FILLER_0_35_373
*1357 FILLER_0_35_385
*1358 FILLER_0_35_39
*1359 FILLER_0_35_391
*1360 FILLER_0_35_393
*1361 FILLER_0_35_405
*1362 FILLER_0_35_51
*1363 FILLER_0_35_55
*1364 FILLER_0_35_57
*1365 FILLER_0_35_69
*1366 FILLER_0_35_81
*1367 FILLER_0_35_93
*1368 FILLER_0_36_109
*1369 FILLER_0_36_121
*1370 FILLER_0_36_133
*1371 FILLER_0_36_139
*1372 FILLER_0_36_141
*1373 FILLER_0_36_15
*1374 FILLER_0_36_153
*1375 FILLER_0_36_165
*1376 FILLER_0_36_173
*1377 FILLER_0_36_179
*1378 FILLER_0_36_183
*1379 FILLER_0_36_190
*1380 FILLER_0_36_195
*1381 FILLER_0_36_197
*1382 FILLER_0_36_208
*1383 FILLER_0_36_216
*1384 FILLER_0_36_234
*1385 FILLER_0_36_261
*1386 FILLER_0_36_27
*1387 FILLER_0_36_273
*1388 FILLER_0_36_285
*1389 FILLER_0_36_29
*1390 FILLER_0_36_297
*1391 FILLER_0_36_3
*1392 FILLER_0_36_305
*1393 FILLER_0_36_309
*1394 FILLER_0_36_321
*1395 FILLER_0_36_333
*1396 FILLER_0_36_345
*1397 FILLER_0_36_357
*1398 FILLER_0_36_363
*1399 FILLER_0_36_365
*1400 FILLER_0_36_377
*1401 FILLER_0_36_389
*1402 FILLER_0_36_401
*1403 FILLER_0_36_41
*1404 FILLER_0_36_53
*1405 FILLER_0_36_65
*1406 FILLER_0_36_77
*1407 FILLER_0_36_83
*1408 FILLER_0_36_85
*1409 FILLER_0_36_97
*1410 FILLER_0_37_105
*1411 FILLER_0_37_111
*1412 FILLER_0_37_113
*1413 FILLER_0_37_125
*1414 FILLER_0_37_137
*1415 FILLER_0_37_149
*1416 FILLER_0_37_15
*1417 FILLER_0_37_161
*1418 FILLER_0_37_200
*1419 FILLER_0_37_225
*1420 FILLER_0_37_236
*1421 FILLER_0_37_248
*1422 FILLER_0_37_260
*1423 FILLER_0_37_27
*1424 FILLER_0_37_272
*1425 FILLER_0_37_281
*1426 FILLER_0_37_293
*1427 FILLER_0_37_3
*1428 FILLER_0_37_305
*1429 FILLER_0_37_317
*1430 FILLER_0_37_329
*1431 FILLER_0_37_335
*1432 FILLER_0_37_337
*1433 FILLER_0_37_349
*1434 FILLER_0_37_361
*1435 FILLER_0_37_373
*1436 FILLER_0_37_385
*1437 FILLER_0_37_39
*1438 FILLER_0_37_391
*1439 FILLER_0_37_393
*1440 FILLER_0_37_405
*1441 FILLER_0_37_51
*1442 FILLER_0_37_55
*1443 FILLER_0_37_57
*1444 FILLER_0_37_69
*1445 FILLER_0_37_81
*1446 FILLER_0_37_93
*1447 FILLER_0_38_109
*1448 FILLER_0_38_121
*1449 FILLER_0_38_133
*1450 FILLER_0_38_139
*1451 FILLER_0_38_141
*1452 FILLER_0_38_15
*1453 FILLER_0_38_153
*1454 FILLER_0_38_165
*1455 FILLER_0_38_194
*1456 FILLER_0_38_197
*1457 FILLER_0_38_209
*1458 FILLER_0_38_219
*1459 FILLER_0_38_232
*1460 FILLER_0_38_253