*SPEF "ieee 1481-1999"
*DESIGN "my_first_design"
*DATE "18:44:39 Sunday April 27, 2025"
*VENDOR "The OpenROAD Project"
*PROGRAM "OpenROAD"
*VERSION "b16bda7e82721d10566ff7e2b68f1ff0be9f9e38"
*DESIGN_FLOW "NAME_SCOPE LOCAL" "PIN_CAP NONE"
*DIVIDER /
*DELIMITER :
*BUS_DELIMITER []
*T_UNIT 1 NS
*C_UNIT 1 PF
*R_UNIT 1 OHM
*L_UNIT 1 HENRY

*NAME_MAP
*3 in[0]
*4 in[1]
*5 in[2]
*6 in[3]
*7 in[4]
*8 in[5]
*9 in[6]
*10 in[7]
*11 out[0]
*12 out[1]
*13 out[2]
*14 out[3]
*15 out[4]
*16 out[5]
*17 out[6]
*18 out[7]
*19 _00_
*20 _01_
*21 _02_
*22 _03_
*23 _04_
*24 _05_
*25 _06_
*26 _07_
*27 _08_
*28 net1
*29 net10
*30 net11
*31 net12
*32 net13
*33 net14
*34 net15
*35 net16
*36 net2
*37 net3
*38 net4
*39 net5
*40 net6
*41 net7
*42 net8
*43 net9
*44 FILLER_0_0_21
*45 FILLER_0_0_27
*46 FILLER_0_0_29
*47 FILLER_0_0_41
*48 FILLER_0_0_53
*49 FILLER_0_0_57
*50 FILLER_0_0_69
*51 FILLER_0_0_9
*52 FILLER_0_1_11
*53 FILLER_0_1_17
*54 FILLER_0_1_29
*55 FILLER_0_1_3
*56 FILLER_0_1_37
*57 FILLER_0_1_43
*58 FILLER_0_1_55
*59 FILLER_0_1_57
*60 FILLER_0_1_69
*61 FILLER_0_2_18
*62 FILLER_0_2_26
*63 FILLER_0_2_29
*64 FILLER_0_2_41
*65 FILLER_0_2_49
*66 FILLER_0_2_6
*67 FILLER_0_2_60
*68 FILLER_0_2_72
*69 FILLER_0_2_76
*70 FILLER_0_3_15
*71 FILLER_0_3_27
*72 FILLER_0_3_3
*73 FILLER_0_3_39
*74 FILLER_0_3_51
*75 FILLER_0_3_55
*76 FILLER_0_3_57
*77 FILLER_0_3_69
*78 FILLER_0_3_7
*79 FILLER_0_4_18
*80 FILLER_0_4_26
*81 FILLER_0_4_36
*82 FILLER_0_4_48
*83 FILLER_0_4_6
*84 FILLER_0_4_60
*85 FILLER_0_4_72
*86 FILLER_0_4_76
*87 FILLER_0_5_11
*88 FILLER_0_5_20
*89 FILLER_0_5_3
*90 FILLER_0_5_32
*91 FILLER_0_5_44
*92 FILLER_0_5_57
*93 FILLER_0_5_61
*94 FILLER_0_5_73
*95 FILLER_0_6_15
*96 FILLER_0_6_27
*97 FILLER_0_6_29
*98 FILLER_0_6_41
*99 FILLER_0_6_52
*100 FILLER_0_6_6
*101 FILLER_0_6_64
*102 FILLER_0_6_74
*103 FILLER_0_7_14
*104 FILLER_0_7_26
*105 FILLER_0_7_3
*106 FILLER_0_7_38
*107 FILLER_0_7_50
*108 FILLER_0_7_57
*109 FILLER_0_7_64
*110 FILLER_0_7_76
*111 FILLER_0_7_80
*112 FILLER_0_8_13
*113 FILLER_0_8_25
*114 FILLER_0_8_29
*115 FILLER_0_8_41
*116 FILLER_0_8_53
*117 FILLER_0_8_59
*118 FILLER_0_8_65
*119 FILLER_0_8_69
*120 FILLER_0_9_13
*121 FILLER_0_9_25
*122 FILLER_0_9_36
*123 FILLER_0_9_48
*124 FILLER_0_9_57
*125 FILLER_0_9_69
*126 PHY_EDGE_ROW_0_Left_10
*127 PHY_EDGE_ROW_0_Right_0
*128 PHY_EDGE_ROW_1_Left_11
*129 PHY_EDGE_ROW_1_Right_1
*130 PHY_EDGE_ROW_2_Left_12
*131 PHY_EDGE_ROW_2_Right_2
*132 PHY_EDGE_ROW_3_Left_13
*133 PHY_EDGE_ROW_3_Right_3
*134 PHY_EDGE_ROW_4_Left_14
*135 PHY_EDGE_ROW_4_Right_4
*136 PHY_EDGE_ROW_5_Left_15
*137 PHY_EDGE_ROW_5_Right_5
*138 PHY_EDGE_ROW_6_Left_16
*139 PHY_EDGE_ROW_6_Right_6
*140 PHY_EDGE_ROW_7_Left_17
*141 PHY_EDGE_ROW_7_Right_7
*142 PHY_EDGE_ROW_8_Left_18
*143 PHY_EDGE_ROW_8_Right_8
*144 PHY_EDGE_ROW_9_Left_19
*145 PHY_EDGE_ROW_9_Right_9
*146 TAP_TAPCELL_ROW_0_20
*147 TAP_TAPCELL_ROW_0_21
*148 TAP_TAPCELL_ROW_1_22
*149 TAP_TAPCELL_ROW_2_23
*150 TAP_TAPCELL_ROW_3_24
*151 TAP_TAPCELL_ROW_4_25
*152 TAP_TAPCELL_ROW_5_26
*153 TAP_TAPCELL_ROW_6_27
*154 TAP_TAPCELL_ROW_7_28
*155 TAP_TAPCELL_ROW_8_29
*156 TAP_TAPCELL_ROW_9_30
*157 TAP_TAPCELL_ROW_9_31
*158 _09_
*159 _10_
*160 _11_
*161 _12_
*162 _13_
*163 _14_
*164 _15_
*165 _16_
*166 _17_
*167 _18_
*168 _19_
*169 _20_
*170 _21_
*171 _22_
*172 _23_
*173 _24_
*174 _25_
*175 input1
*176 input2
*177 input3
*178 input4
*179 input5
*180 input6
*181 input7
*182 input8
*183 output10
*184 output11
*185 output12
*186 output13
*187 output14
*188 output15
*189 output16
*190 output9

*PORTS
in[0] I
in[1] I
in[2] I
in[3] I
in[4] I
in[5] I
in[6] I
in[7] I
out[0] O
out[1] O
out[2] O
out[3] O
out[4] O
out[5] O
out[6] O
out[7] O

*D_NET *3 0.00140816
*CONN
*P in[0] I
*I *175:A I *D sky130_fd_sc_hd__clkbuf_2
*CAP
1 in[0] 0.000609366
2 *175:A 0.000609366
3 *175:A *176:A 0
4 *175:A *36:14 0.000189426
*RES
1 in[0] *175:A 12.3 
*END

*D_NET *4 0.000593786
*CONN
*P in[1] I
*I *176:A I *D sky130_fd_sc_hd__dlymetal6s2s_1
*CAP
1 in[1] 0.000296893
2 *176:A 0.000296893
3 *176:A *177:A 0
4 *175:A *176:A 0
*RES
1 in[1] *176:A 7.3443 
*END

*D_NET *5 0.000783928
*CONN
*P in[2] I
*I *177:A I *D sky130_fd_sc_hd__buf_1
*CAP
1 in[2] 0.000353323
2 *177:A 0.000353323
3 *177:A *178:A 0
4 *177:A *28:14 4.66108e-05
5 *177:A *34:24 3.06704e-05
6 *177:A *36:14 0
7 *176:A *177:A 0
*RES
1 in[2] *177:A 8.38043 
*END

*D_NET *6 0.000485855
*CONN
*P in[3] I
*I *178:A I *D sky130_fd_sc_hd__clkbuf_1
*CAP
1 in[3] 0.000225043
2 *178:A 0.000225043
3 *178:A *179:A 0
4 *178:A *36:14 3.57702e-05
5 *177:A *178:A 0
*RES
1 in[3] *178:A 5.35677 
*END

*D_NET *7 0.000523624
*CONN
*P in[4] I
*I *179:A I *D sky130_fd_sc_hd__buf_1
*CAP
1 in[4] 0.000261812
2 *179:A 0.000261812
3 *179:A *180:A 0
4 *178:A *179:A 0
*RES
1 in[4] *179:A 6.8343 
*END

*D_NET *8 0.000518509
*CONN
*P in[5] I
*I *180:A I *D sky130_fd_sc_hd__buf_1
*CAP
1 in[5] 0.000259255
2 *180:A 0.000259255
3 *180:A *181:A 0
4 *179:A *180:A 0
*RES
1 in[5] *180:A 6.8343 
*END

*D_NET *9 0.000523624
*CONN
*P in[6] I
*I *181:A I *D sky130_fd_sc_hd__clkbuf_1
*CAP
1 in[6] 0.000261812
2 *181:A 0.000261812
3 *181:A *182:A 0
4 *180:A *181:A 0
*RES
1 in[6] *181:A 6.8343 
*END

*D_NET *10 0.00105769
*CONN
*P in[7] I
*I *182:A I *D sky130_fd_sc_hd__buf_1
*CAP
1 in[7] 0.000528844
2 *182:A 0.000528844
3 *181:A *182:A 0
*RES
1 in[7] *182:A 9.61157 
*END

*D_NET *11 0.00115704
*CONN
*P out[0] O
*I *190:X O *D sky130_fd_sc_hd__buf_2
*CAP
1 out[0] 0.000578518
2 *190:X 0.000578518
3 out[0] out[1] 0
*RES
1 *190:X out[0] 9.7281 
*END

*D_NET *12 0.000541635
*CONN
*P out[1] O
*I *183:X O *D sky130_fd_sc_hd__buf_2
*CAP
1 out[1] 0.000270817
2 *183:X 0.000270817
3 out[1] out[2] 0
4 out[0] out[1] 0
*RES
1 *183:X out[1] 5.41503 
*END

*D_NET *13 0.000465603
*CONN
*P out[2] O
*I *184:X O *D sky130_fd_sc_hd__buf_2
*CAP
1 out[2] 0.000226946
2 *184:X 0.000226946
3 out[2] out[3] 0
4 out[2] *183:A 1.17114e-05
5 out[1] out[2] 0
*RES
1 *184:X out[2] 4.90503 
*END

*D_NET *14 0.000734408
*CONN
*P out[3] O
*I *185:X O *D sky130_fd_sc_hd__buf_2
*CAP
1 out[3] 0.000358819
2 *185:X 0.000358819
3 out[3] out[4] 0
4 out[3] *185:A 5.83121e-06
5 out[3] *190:A 1.09383e-05
6 out[2] out[3] 0
*RES
1 *185:X out[3] 5.81657 
*END

*D_NET *15 0.000473318
*CONN
*P out[4] O
*I *186:X O *D sky130_fd_sc_hd__buf_2
*CAP
1 out[4] 0.000236659
2 *186:X 0.000236659
3 out[4] out[5] 0
4 out[3] out[4] 0
*RES
1 *186:X out[4] 4.90503 
*END

*D_NET *16 0.000477972
*CONN
*P out[5] O
*I *187:X O *D sky130_fd_sc_hd__buf_2
*CAP
1 out[5] 0.000238986
2 *187:X 0.000238986
3 out[5] out[6] 0
4 out[4] out[5] 0
*RES
1 *187:X out[5] 4.90503 
*END

*D_NET *17 0.000450588
*CONN
*P out[6] O
*I *188:X O *D sky130_fd_sc_hd__buf_2
*CAP
1 out[6] 0.000225294
2 *188:X 0.000225294
3 out[6] out[7] 0
4 out[5] out[6] 0
*RES
1 *188:X out[6] 4.90503 
*END

*D_NET *18 0.00107957
*CONN
*P out[7] O
*I *189:X O *D sky130_fd_sc_hd__buf_2
*CAP
1 out[7] 0.000539787
2 *189:X 0.000539787
3 out[6] out[7] 0
*RES
1 *189:X out[7] 9.2181 
*END

*D_NET *19 0.0060427
*CONN
*I *173:B1_N I *D sky130_fd_sc_hd__a21boi_1
*I *164:D I *D sky130_fd_sc_hd__or4_1
*I *160:B I *D sky130_fd_sc_hd__and2_1
*I *159:B I *D sky130_fd_sc_hd__nor2_1
*I *163:A3 I *D sky130_fd_sc_hd__o31a_1
*I *158:X O *D sky130_fd_sc_hd__or4_2
*CAP
1 *173:B1_N 0.000657316
2 *164:D 0
3 *160:B 0.000156841
4 *159:B 0
5 *163:A3 0.000199145
6 *158:X 4.50326e-05
7 *19:33 0.000208624
8 *19:18 0.000250928
9 *19:16 0.000301545
10 *19:8 0.00100389
11 *160:B *160:A 0.000256044
12 *160:B *161:B 2.68464e-05
13 *160:B *162:A 9.50342e-06
14 *163:A3 *162:A 6.52111e-05
15 *163:A3 *163:A1 0.000246893
16 *163:A3 *163:A2 4.40742e-05
17 *163:A3 *37:14 1.52352e-05
18 *163:A3 *39:21 0.000134379
19 *163:A3 *40:21 0.000273015
20 *173:B1_N *161:B 8.7152e-05
21 *173:B1_N *167:A 0.000358951
22 *173:B1_N *167:B 0.00014116
23 *173:B1_N *173:A1 0.000516751
24 *173:B1_N *173:A2 0.00015639
25 *173:B1_N *185:A 5.09796e-05
26 *19:8 *165:B 2.66935e-05
27 *19:8 *167:A 0.00011852
28 *19:8 *167:B 2.03578e-05
29 *19:16 *164:A 0.000114652
30 *19:16 *164:C 4.66108e-05
31 *19:16 *23:8 0.000188051
32 *19:33 *160:A 8.30853e-06
33 *19:33 *162:A 0.000159964
34 *19:33 *39:21 2.06767e-05
35 *19:33 *39:34 0.000132961
*RES
1 *158:X *19:8 4.98 
2 *19:8 *19:16 8.09 
3 *19:16 *19:18 2 
4 *19:18 *163:A3 9.375 
5 *19:18 *19:33 1.89 
6 *19:33 *159:B 3.6 
7 *19:33 *160:B 7.14 
8 *19:16 *164:D 1.6 
9 *19:8 *173:B1_N 19.275 
*END

*D_NET *20 0.0040118
*CONN
*I *161:A I *D sky130_fd_sc_hd__nor2_1
*I *162:B I *D sky130_fd_sc_hd__xnor2_1
*I *159:Y O *D sky130_fd_sc_hd__nor2_1
*CAP
1 *161:A 0.000530617
2 *162:B 1.88809e-05
3 *159:Y 0.000621342
4 *20:6 0.00117084
5 *161:A *162:A 2.30292e-05
6 *161:A *168:B 0.000359962
7 *161:A *171:B 0.000312083
8 *161:A *172:A 0.000265924
9 *162:B *168:B 5.4155e-06
10 *20:6 *162:A 0.000694968
11 *20:6 *38:8 8.73389e-06
*RES
1 *159:Y *20:6 12.745 
2 *20:6 *162:B 1.96 
3 *20:6 *161:A 16.385 
*END

*D_NET *21 0.00449894
*CONN
*I *161:B I *D sky130_fd_sc_hd__nor2_1
*I *160:X O *D sky130_fd_sc_hd__and2_1
*CAP
1 *161:B 0.00157397
2 *160:X 0.00157397
3 *161:B *173:A1 0.00102881
4 *161:B *184:A 0.00011852
5 *161:B *185:A 1.95499e-05
6 *161:B *186:A 7.01359e-05
7 *160:B *161:B 2.68464e-05
8 *173:B1_N *161:B 8.7152e-05
*RES
1 *160:X *161:B 27.66 
*END

*D_NET *22 0.00335274
*CONN
*I *165:A_N I *D sky130_fd_sc_hd__and2b_1
*I *163:X O *D sky130_fd_sc_hd__o31a_1
*CAP
1 *165:A_N 0.001225
2 *163:X 0.001225
3 *165:A_N *171:B 7.03219e-05
4 *165:A_N *25:10 0.000114643
5 *165:A_N *37:29 0.000717779
*RES
1 *163:X *165:A_N 22.83 
*END

*D_NET *23 0.00395153
*CONN
*I *167:B I *D sky130_fd_sc_hd__xor2_1
*I *165:B I *D sky130_fd_sc_hd__and2b_1
*I *164:X O *D sky130_fd_sc_hd__or4_1
*CAP
1 *167:B 0.000563526
2 *165:B 0.000817748
3 *164:X 0.000207935
4 *23:8 0.00158921
5 *165:B *167:A 0
6 *165:B *170:B1 0.000396852
7 *167:B *167:A 0
8 *173:B1_N *167:B 0.00014116
9 *19:8 *165:B 2.66935e-05
10 *19:8 *167:B 2.03578e-05
11 *19:16 *23:8 0.000188051
*RES
1 *164:X *23:8 6.465 
2 *23:8 *165:B 17.19 
3 *23:8 *167:B 13.515 
*END

*D_NET *24 0.00344046
*CONN
*I *166:A I *D sky130_fd_sc_hd__clkbuf_1
*I *165:X O *D sky130_fd_sc_hd__and2b_1
*CAP
1 *166:A 0.00167701
2 *165:X 0.00167701
3 *166:A *171:A 0
4 *166:A *25:10 0
5 *166:A *34:24 8.64421e-05
*RES
1 *165:X *166:A 32.685 
*END

*D_NET *25 0.00532841
*CONN
*I *171:A I *D sky130_fd_sc_hd__and2_1
*I *173:A2 I *D sky130_fd_sc_hd__a21boi_1
*I *169:X O *D sky130_fd_sc_hd__or3_1
*CAP
1 *171:A 9.10395e-05
2 *173:A2 3.90302e-05
3 *169:X 0.00152899
4 *25:10 0.00165906
5 *171:A *171:B 8.70923e-05
6 *173:A2 *173:A1 0.00015639
7 *25:10 *171:B 0.000431905
8 *25:10 *174:A 0.000233597
9 *25:10 *190:A 0.000146456
10 *25:10 *28:23 0.000683818
11 *165:A_N *25:10 0.000114643
12 *166:A *171:A 0
13 *166:A *25:10 0
14 *173:B1_N *173:A2 0.00015639
*RES
1 *169:X *25:10 28.65 
2 *25:10 *173:A2 5.085 
3 *25:10 *171:A 5.49 
*END

*D_NET *26 0.00195517
*CONN
*I *171:B I *D sky130_fd_sc_hd__and2_1
*I *170:Y O *D sky130_fd_sc_hd__o21ai_1
*CAP
1 *171:B 0.000365823
2 *170:Y 0.000365823
3 *171:B *168:A 7.03851e-05
4 *171:B *170:A1 0.000125598
5 *171:B *170:A2 1.19028e-05
6 *171:B *170:B1 4.7072e-06
7 *171:B *172:A 0.000109526
8 *161:A *171:B 0.000312083
9 *165:A_N *171:B 7.03219e-05
10 *171:A *171:B 8.70923e-05
11 *25:10 *171:B 0.000431905
*RES
1 *170:Y *171:B 19.23 
*END

*D_NET *27 0.000963481
*CONN
*I *172:A I *D sky130_fd_sc_hd__clkbuf_1
*I *171:X O *D sky130_fd_sc_hd__and2_1
*CAP
1 *172:A 0.000212023
2 *171:X 0.000212023
3 *172:A *168:A 0.000163985
4 *172:A *186:A 0
5 *161:A *172:A 0.000265924
6 *171:B *172:A 0.000109526
*RES
1 *171:X *172:A 12.66 
*END

*D_NET *28 0.01141
*CONN
*I *174:A I *D sky130_fd_sc_hd__clkbuf_1
*I *168:B I *D sky130_fd_sc_hd__xor2_1
*I *158:D I *D sky130_fd_sc_hd__or4_2
*I *170:A2 I *D sky130_fd_sc_hd__o21ai_1
*I *169:C I *D sky130_fd_sc_hd__or3_1
*I *175:X O *D sky130_fd_sc_hd__clkbuf_2
*CAP
1 *174:A 0.000104348
2 *168:B 0.000656403
3 *158:D 3.18487e-05
4 *170:A2 0.000449327
5 *169:C 0
6 *175:X 0.000430713
7 *28:40 0.000783526
8 *28:27 0.000593148
9 *28:23 0.000512942
10 *28:14 0.000790761
11 *158:D *36:38 2.49909e-05
12 *168:B *158:A 0.000135304
13 *168:B *158:B 8.99646e-05
14 *168:B *162:A 0.000505372
15 *168:B *168:A 0.000348206
16 *168:B *173:A1 1.71013e-05
17 *168:B *187:A 0.000115455
18 *168:B *189:A 0.000363667
19 *170:A2 *170:B1 0.000837334
20 *28:14 *164:C 0.000338226
21 *28:14 *169:B 8.95814e-05
22 *28:14 *34:24 0.00116994
23 *28:14 *36:14 0.000479078
24 *28:14 *41:8 0.000352785
25 *28:27 *167:A 3.98029e-05
26 *28:27 *189:A 0.000111293
27 *28:40 *158:B 0.000186439
28 *28:40 *167:A 5.36975e-06
29 *28:40 *170:B1 0.00015356
30 *28:40 *189:A 0.000352163
31 *161:A *168:B 0.000359962
32 *162:B *168:B 5.4155e-06
33 *171:B *170:A2 1.19028e-05
34 *177:A *28:14 4.66108e-05
35 *25:10 *174:A 0.000233597
36 *25:10 *28:23 0.000683818
*RES
1 *175:X *28:14 21.845 
2 *28:14 *169:C 1.6 
3 *28:14 *28:23 8.055 
4 *28:23 *28:27 3.38 
5 *28:27 *170:A2 12.345 
6 *28:27 *28:40 4.185 
7 *28:40 *158:D 4.05 
8 *28:40 *168:B 20.34 
9 *28:23 *174:A 4.135 
*END

*D_NET *29 0.00109626
*CONN
*I *183:A I *D sky130_fd_sc_hd__buf_2
*I *168:X O *D sky130_fd_sc_hd__xor2_1
*CAP
1 *183:A 0.000379795
2 *168:X 0.000379795
3 *183:A *185:A 6.39125e-05
4 *183:A *190:A 0.00026105
5 out[2] *183:A 1.17114e-05
*RES
1 *168:X *183:A 14.4 
*END

*D_NET *30 0.00196365
*CONN
*I *184:A I *D sky130_fd_sc_hd__buf_2
*I *172:X O *D sky130_fd_sc_hd__clkbuf_1
*CAP
1 *184:A 0.000764695
2 *172:X 0.000764695
3 *184:A *185:A 0.000139933
4 *184:A *186:A 0.000175807
5 *184:A *190:A 0
6 *161:B *184:A 0.00011852
*RES
1 *172:X *184:A 18.735 
*END

*D_NET *31 0.00132799
*CONN
*I *185:A I *D sky130_fd_sc_hd__buf_2
*I *173:Y O *D sky130_fd_sc_hd__a21boi_1
*CAP
1 *185:A 0.000523892
2 *173:Y 0.000523892
3 out[3] *185:A 5.83121e-06
4 *161:B *185:A 1.95499e-05
5 *173:B1_N *185:A 5.09796e-05
6 *183:A *185:A 6.39125e-05
7 *184:A *185:A 0.000139933
*RES
1 *173:Y *185:A 14.565 
*END

*D_NET *32 0.00160374
*CONN
*I *186:A I *D sky130_fd_sc_hd__buf_2
*I *161:Y O *D sky130_fd_sc_hd__nor2_1
*CAP
1 *186:A 0.0006789
2 *161:Y 0.0006789
3 *186:A *168:A 0
4 *186:A *187:A 0
5 *186:A *190:A 0
6 *161:B *186:A 7.01359e-05
7 *172:A *186:A 0
8 *184:A *186:A 0.000175807
*RES
1 *161:Y *186:A 18.51 
*END

*D_NET *33 0.00278677
*CONN
*I *187:A I *D sky130_fd_sc_hd__buf_2
*I *162:Y O *D sky130_fd_sc_hd__xnor2_1
*CAP
1 *187:A 0.000983027
2 *162:Y 0.000983027
3 *187:A *168:A 0.000321766
4 *187:A *170:A1 0.000383494
5 *168:B *187:A 0.000115455
6 *186:A *187:A 0
*RES
1 *162:Y *187:A 24.135 
*END

*D_NET *34 0.00780097
*CONN
*I *188:A I *D sky130_fd_sc_hd__buf_2
*I *166:X O *D sky130_fd_sc_hd__clkbuf_1
*CAP
1 *188:A 0
2 *166:X 0.00175817
3 *34:24 0.00175817
4 *34:24 *167:A 0.000526765
5 *34:24 *189:A 0.00145791
6 *34:24 *36:14 2.18073e-05
7 *34:24 *37:14 0.00092046
8 *34:24 *41:8 7.06283e-05
9 *166:A *34:24 8.64421e-05
10 *177:A *34:24 3.06704e-05
11 *28:14 *34:24 0.00116994
*RES
1 *166:X *34:24 49.145 
2 *34:24 *188:A 1.6 
*END

*D_NET *35 0.0053171
*CONN
*I *189:A I *D sky130_fd_sc_hd__buf_2
*I *167:X O *D sky130_fd_sc_hd__xor2_1
*CAP
1 *189:A 0.00146853
2 *167:X 0.00146853
3 *189:A *167:A 0
4 *189:A *173:A1 9.50115e-05
5 *168:B *189:A 0.000363667
6 *28:27 *189:A 0.000111293
7 *28:40 *189:A 0.000352163
8 *34:24 *189:A 0.00145791
*RES
1 *167:X *189:A 38.37 
*END

*D_NET *36 0.00852838
*CONN
*I *168:A I *D sky130_fd_sc_hd__xor2_1
*I *170:A1 I *D sky130_fd_sc_hd__o21ai_1
*I *158:C I *D sky130_fd_sc_hd__or4_2
*I *169:B I *D sky130_fd_sc_hd__or3_1
*I *176:X O *D sky130_fd_sc_hd__dlymetal6s2s_1
*CAP
1 *168:A 0.000263242
2 *170:A1 0.000124977
3 *158:C 0
4 *169:B 0.000528092
5 *176:X 0.000453075
6 *36:38 0.00101498
7 *36:29 0.00130032
8 *36:14 0.00165473
9 *169:B *164:C 0.000178255
10 *169:B *41:8 0.000421441
11 *36:14 *164:C 0.000164686
12 *36:29 *39:8 0.000170486
13 *158:D *36:38 2.49909e-05
14 *168:B *168:A 0.000348206
15 *171:B *168:A 7.03851e-05
16 *171:B *170:A1 0.000125598
17 *172:A *168:A 0.000163985
18 *175:A *36:14 0.000189426
19 *177:A *36:14 0
20 *178:A *36:14 3.57702e-05
21 *186:A *168:A 0
22 *187:A *168:A 0.000321766
23 *187:A *170:A1 0.000383494
24 *28:14 *169:B 8.95814e-05
25 *28:14 *36:14 0.000479078
26 *34:24 *36:14 2.18073e-05
*RES
1 *176:X *36:14 14.655 
2 *36:14 *169:B 13.455 
3 *36:14 *36:29 12.11 
4 *36:29 *158:C 1.6 
5 *36:29 *36:38 11.075 
6 *36:38 *170:A1 8.04 
7 *36:38 *168:A 11.085 
*END

*D_NET *37 0.0066707
*CONN
*I *158:B I *D sky130_fd_sc_hd__or4_2
*I *170:B1 I *D sky130_fd_sc_hd__o21ai_1
*I *169:A I *D sky130_fd_sc_hd__or3_1
*I *177:X O *D sky130_fd_sc_hd__buf_1
*CAP
1 *158:B 6.43496e-05
2 *170:B1 0.000275759
3 *169:A 0.000228292
4 *177:X 0.000582015
5 *37:29 0.000607852
6 *37:14 0.00107805
7 *158:B *158:A 7.63883e-05
8 *158:B *167:A 0.000108628
9 *169:A *40:10 4.70326e-05
10 *170:B1 *167:A 8.37253e-05
11 *37:14 *163:A2 8.52845e-05
12 *37:14 *163:B1 2.68526e-05
13 *37:29 *163:A2 8.41384e-05
14 *163:A3 *37:14 1.52352e-05
15 *165:A_N *37:29 0.000717779
16 *165:B *170:B1 0.000396852
17 *168:B *158:B 8.99646e-05
18 *170:A2 *170:B1 0.000837334
19 *171:B *170:B1 4.7072e-06
20 *28:40 *158:B 0.000186439
21 *28:40 *170:B1 0.00015356
22 *34:24 *37:14 0.00092046
*RES
1 *177:X *37:14 17.93 
2 *37:14 *169:A 9.275 
3 *37:14 *37:29 9.005 
4 *37:29 *170:B1 13.89 
5 *37:29 *158:B 6.765 
*END

*D_NET *38 0.00532706
*CONN
*I *173:A1 I *D sky130_fd_sc_hd__a21boi_1
*I *158:A I *D sky130_fd_sc_hd__or4_2
*I *178:X O *D sky130_fd_sc_hd__clkbuf_1
*CAP
1 *173:A1 0.000273497
2 *158:A 8.44389e-05
3 *178:X 0.000795398
4 *38:8 0.00115333
5 *158:A *167:A 0.00031916
6 *173:A1 *167:A 0.000264491
7 *38:8 *159:A 2.68464e-05
8 *38:8 *162:A 0.000375412
9 *158:B *158:A 7.63883e-05
10 *161:B *173:A1 0.00102881
11 *168:B *158:A 0.000135304
12 *168:B *173:A1 1.71013e-05
13 *173:A2 *173:A1 0.00015639
14 *173:B1_N *173:A1 0.000516751
15 *189:A *173:A1 9.50115e-05
16 *20:6 *38:8 8.73389e-06
*RES
1 *178:X *38:8 13.02 
2 *38:8 *158:A 7.275 
3 *38:8 *173:A1 16.185 
*END

*D_NET *39 0.00286119
*CONN
*I *160:A I *D sky130_fd_sc_hd__and2_1
*I *159:A I *D sky130_fd_sc_hd__nor2_1
*I *164:A I *D sky130_fd_sc_hd__or4_1
*I *163:A1 I *D sky130_fd_sc_hd__o31a_1
*I *179:X O *D sky130_fd_sc_hd__buf_1
*CAP
1 *160:A 0.000181888
2 *159:A 2.36259e-05
3 *164:A 0.00010973
4 *163:A1 0.000130203
5 *179:X 0.000232551
6 *39:34 0.000279395
7 *39:21 0.000267604
8 *39:8 0.000446746
9 *163:A1 *163:A2 4.89295e-05
10 *163:A1 *40:21 1.01155e-05
11 *164:A *164:C 1.91597e-05
12 *160:B *160:A 0.000256044
13 *163:A3 *163:A1 0.000246893
14 *163:A3 *39:21 0.000134379
15 *19:16 *164:A 0.000114652
16 *19:33 *160:A 8.30853e-06
17 *19:33 *39:21 2.06767e-05
18 *19:33 *39:34 0.000132961
19 *36:29 *39:8 0.000170486
20 *38:8 *159:A 2.68464e-05
*RES
1 *179:X *39:8 6.465 
2 *39:8 *163:A1 6.705 
3 *39:8 *39:21 1.89 
4 *39:21 *164:A 5.445 
5 *39:21 *39:34 1.635 
6 *39:34 *159:A 4.05 
7 *39:34 *160:A 7.23 
*END

*D_NET *40 0.00448272
*CONN
*I *162:A I *D sky130_fd_sc_hd__xnor2_1
*I *164:B I *D sky130_fd_sc_hd__or4_1
*I *163:A2 I *D sky130_fd_sc_hd__o31a_1
*I *180:X O *D sky130_fd_sc_hd__buf_1
*CAP
1 *162:A 0.000403853
2 *164:B 0
3 *163:A2 4.04949e-05
4 *180:X 0.000425228
5 *40:21 0.000562613
6 *40:10 0.000624483
7 *160:B *162:A 9.50342e-06
8 *161:A *162:A 2.30292e-05
9 *163:A1 *163:A2 4.89295e-05
10 *163:A1 *40:21 1.01155e-05
11 *163:A3 *162:A 6.52111e-05
12 *163:A3 *163:A2 4.40742e-05
13 *163:A3 *40:21 0.000273015
14 *168:B *162:A 0.000505372
15 *169:A *40:10 4.70326e-05
16 *19:33 *162:A 0.000159964
17 *20:6 *162:A 0.000694968
18 *37:14 *163:A2 8.52845e-05
19 *37:29 *163:A2 8.41384e-05
20 *38:8 *162:A 0.000375412
*RES
1 *180:X *40:10 8.535 
2 *40:10 *163:A2 5.085 
3 *40:10 *40:21 3.675 
4 *40:21 *164:B 3.6 
5 *40:21 *162:A 17.4 
*END

*D_NET *41 0.00281291
*CONN
*I *164:C I *D sky130_fd_sc_hd__or4_1
*I *163:B1 I *D sky130_fd_sc_hd__o31a_1
*I *181:X O *D sky130_fd_sc_hd__clkbuf_1
*CAP
1 *164:C 0.000347849
2 *163:B1 0.000110363
3 *181:X 0.000138921
4 *41:8 0.000597133
5 *164:A *164:C 1.91597e-05
6 *169:B *164:C 0.000178255
7 *169:B *41:8 0.000421441
8 *19:16 *164:C 4.66108e-05
9 *28:14 *164:C 0.000338226
10 *28:14 *41:8 0.000352785
11 *34:24 *41:8 7.06283e-05
12 *36:14 *164:C 0.000164686
13 *37:14 *163:B1 2.68526e-05
*RES
1 *181:X *41:8 9.315 
2 *41:8 *163:B1 5.085 
3 *41:8 *164:C 11.085 
*END

*D_NET *42 0.0045587
*CONN
*I *167:A I *D sky130_fd_sc_hd__xor2_1
*I *182:X O *D sky130_fd_sc_hd__buf_1
*CAP
1 *167:A 0.00136665
2 *182:X 0.00136665
3 *158:A *167:A 0.00031916
4 *158:B *167:A 0.000108628
5 *165:B *167:A 0
6 *167:B *167:A 0
7 *170:B1 *167:A 8.37253e-05
8 *173:A1 *167:A 0.000264491
9 *173:B1_N *167:A 0.000358951
10 *189:A *167:A 0
11 *19:8 *167:A 0.00011852
12 *28:27 *167:A 3.98029e-05
13 *28:40 *167:A 5.36975e-06
14 *34:24 *167:A 0.000526765
*RES
1 *182:X *167:A 33.195 
*END

*D_NET *43 0.0040286
*CONN
*I *190:A I *D sky130_fd_sc_hd__buf_2
*I *174:X O *D sky130_fd_sc_hd__clkbuf_1
*CAP
1 *190:A 0.00180508
2 *174:X 0.00180508
3 out[3] *190:A 1.09383e-05
4 *183:A *190:A 0.00026105
5 *184:A *190:A 0
6 *186:A *190:A 0
7 *25:10 *190:A 0.000146456
*RES
1 *174:X *190:A 36.42 
*END
