*SPEF "ieee 1481-1999"
*DESIGN "my_first_design"
*DATE "18:44:49 Sunday April 27, 2025"
*VENDOR "The OpenROAD Project"
*PROGRAM "OpenROAD"
*VERSION "b16bda7e82721d10566ff7e2b68f1ff0be9f9e38"
*DESIGN_FLOW "NAME_SCOPE LOCAL" "PIN_CAP NONE"
*DIVIDER /
*DELIMITER :
*BUS_DELIMITER []
*T_UNIT 1 NS
*C_UNIT 1 PF
*R_UNIT 1 OHM
*L_UNIT 1 HENRY

*NAME_MAP
*3 in[0]
*4 in[1]
*5 in[2]
*6 in[3]
*7 in[4]
*8 in[5]
*9 in[6]
*10 in[7]
*11 out[0]
*12 out[1]
*13 out[2]
*14 out[3]
*15 out[4]
*16 out[5]
*17 out[6]
*18 out[7]
*19 _00_
*20 _01_
*21 _02_
*22 _03_
*23 _04_
*24 _05_
*25 _06_
*26 _07_
*27 _08_
*28 net1
*29 net10
*30 net11
*31 net12
*32 net13
*33 net14
*34 net15
*35 net16
*36 net2
*37 net3
*38 net4
*39 net5
*40 net6
*41 net7
*42 net8
*43 net9
*44 FILLER_0_0_21
*45 FILLER_0_0_27
*46 FILLER_0_0_29
*47 FILLER_0_0_41
*48 FILLER_0_0_53
*49 FILLER_0_0_57
*50 FILLER_0_0_69
*51 FILLER_0_0_9
*52 FILLER_0_1_11
*53 FILLER_0_1_17
*54 FILLER_0_1_29
*55 FILLER_0_1_3
*56 FILLER_0_1_37
*57 FILLER_0_1_43
*58 FILLER_0_1_55
*59 FILLER_0_1_57
*60 FILLER_0_1_69
*61 FILLER_0_2_18
*62 FILLER_0_2_26
*63 FILLER_0_2_29
*64 FILLER_0_2_41
*65 FILLER_0_2_49
*66 FILLER_0_2_6
*67 FILLER_0_2_60
*68 FILLER_0_2_72
*69 FILLER_0_2_76
*70 FILLER_0_3_15
*71 FILLER_0_3_27
*72 FILLER_0_3_3
*73 FILLER_0_3_39
*74 FILLER_0_3_51
*75 FILLER_0_3_55
*76 FILLER_0_3_57
*77 FILLER_0_3_69
*78 FILLER_0_3_7
*79 FILLER_0_4_18
*80 FILLER_0_4_26
*81 FILLER_0_4_36
*82 FILLER_0_4_48
*83 FILLER_0_4_6
*84 FILLER_0_4_60
*85 FILLER_0_4_72
*86 FILLER_0_4_76
*87 FILLER_0_5_11
*88 FILLER_0_5_20
*89 FILLER_0_5_3
*90 FILLER_0_5_32
*91 FILLER_0_5_44
*92 FILLER_0_5_57
*93 FILLER_0_5_61
*94 FILLER_0_5_73
*95 FILLER_0_6_15
*96 FILLER_0_6_27
*97 FILLER_0_6_29
*98 FILLER_0_6_41
*99 FILLER_0_6_52
*100 FILLER_0_6_6
*101 FILLER_0_6_64
*102 FILLER_0_6_74
*103 FILLER_0_7_14
*104 FILLER_0_7_26
*105 FILLER_0_7_3
*106 FILLER_0_7_38
*107 FILLER_0_7_50
*108 FILLER_0_7_57
*109 FILLER_0_7_64
*110 FILLER_0_7_76
*111 FILLER_0_7_80
*112 FILLER_0_8_13
*113 FILLER_0_8_25
*114 FILLER_0_8_29
*115 FILLER_0_8_41
*116 FILLER_0_8_53
*117 FILLER_0_8_59
*118 FILLER_0_8_65
*119 FILLER_0_8_69
*120 FILLER_0_9_13
*121 FILLER_0_9_25
*122 FILLER_0_9_36
*123 FILLER_0_9_48
*124 FILLER_0_9_57
*125 FILLER_0_9_69
*126 PHY_EDGE_ROW_0_Left_10
*127 PHY_EDGE_ROW_0_Right_0
*128 PHY_EDGE_ROW_1_Left_11
*129 PHY_EDGE_ROW_1_Right_1
*130 PHY_EDGE_ROW_2_Left_12
*131 PHY_EDGE_ROW_2_Right_2
*132 PHY_EDGE_ROW_3_Left_13
*133 PHY_EDGE_ROW_3_Right_3
*134 PHY_EDGE_ROW_4_Left_14
*135 PHY_EDGE_ROW_4_Right_4
*136 PHY_EDGE_ROW_5_Left_15
*137 PHY_EDGE_ROW_5_Right_5
*138 PHY_EDGE_ROW_6_Left_16
*139 PHY_EDGE_ROW_6_Right_6
*140 PHY_EDGE_ROW_7_Left_17
*141 PHY_EDGE_ROW_7_Right_7
*142 PHY_EDGE_ROW_8_Left_18
*143 PHY_EDGE_ROW_8_Right_8
*144 PHY_EDGE_ROW_9_Left_19
*145 PHY_EDGE_ROW_9_Right_9
*146 TAP_TAPCELL_ROW_0_20
*147 TAP_TAPCELL_ROW_0_21
*148 TAP_TAPCELL_ROW_1_22
*149 TAP_TAPCELL_ROW_2_23
*150 TAP_TAPCELL_ROW_3_24
*151 TAP_TAPCELL_ROW_4_25
*152 TAP_TAPCELL_ROW_5_26
*153 TAP_TAPCELL_ROW_6_27
*154 TAP_TAPCELL_ROW_7_28
*155 TAP_TAPCELL_ROW_8_29
*156 TAP_TAPCELL_ROW_9_30
*157 TAP_TAPCELL_ROW_9_31
*158 _09_
*159 _10_
*160 _11_
*161 _12_
*162 _13_
*163 _14_
*164 _15_
*165 _16_
*166 _17_
*167 _18_
*168 _19_
*169 _20_
*170 _21_
*171 _22_
*172 _23_
*173 _24_
*174 _25_
*175 input1
*176 input2
*177 input3
*178 input4
*179 input5
*180 input6
*181 input7
*182 input8
*183 output10
*184 output11
*185 output12
*186 output13
*187 output14
*188 output15
*189 output16
*190 output9

*PORTS
in[0] I
in[1] I
in[2] I
in[3] I
in[4] I
in[5] I
in[6] I
in[7] I
out[0] O
out[1] O
out[2] O
out[3] O
out[4] O
out[5] O
out[6] O
out[7] O

*D_NET *3 0.00162885
*CONN
*P in[0] I
*I *175:A I *D sky130_fd_sc_hd__clkbuf_2
*CAP
1 in[0] 0.000700674
2 *175:A 0
3 *3:11 0.000700674
4 *3:11 *4:17 0
5 *3:11 *36:10 0.000227497
*RES
1 in[0] *3:11 34.3769 
2 *3:11 *175:A 23 
*END

*D_NET *4 0.000689952
*CONN
*P in[1] I
*I *176:A I *D sky130_fd_sc_hd__dlymetal6s2s_1
*CAP
1 in[1] 0.000344976
2 *176:A 0
3 *4:17 0.000344976
4 *4:17 *5:15 0
5 *3:11 *4:17 0
*RES
1 in[1] *4:17 27.5105 
2 *4:17 *176:A 23 
*END

*D_NET *5 0.000935346
*CONN
*P in[2] I
*I *177:A I *D sky130_fd_sc_hd__buf_1
*CAP
1 in[2] 0.000422906
2 *177:A 0
3 *5:15 0.000422906
4 *5:15 *178:A 0
5 *5:15 *28:8 5.3304e-05
6 *5:15 *34:16 3.623e-05
7 *5:15 *36:10 0
8 *4:17 *5:15 0
*RES
1 in[2] *5:15 28.9317 
2 *5:15 *177:A 23 
*END

*D_NET *6 0.0005502
*CONN
*P in[3] I
*I *178:A I *D sky130_fd_sc_hd__clkbuf_1
*CAP
1 in[3] 0.000255872
2 *178:A 0.000255872
3 *178:A *179:A 0
4 *178:A *36:10 3.84556e-05
5 *5:15 *178:A 0
*RES
1 in[3] *178:A 47.7832 
*END

*D_NET *7 0.000603153
*CONN
*P in[4] I
*I *179:A I *D sky130_fd_sc_hd__buf_1
*CAP
1 in[4] 0.000301577
2 *179:A 0.000301577
3 *179:A *180:A 0
4 *178:A *179:A 0
*RES
1 in[4] *179:A 49.8062 
*END

*D_NET *8 0.000590762
*CONN
*P in[5] I
*I *180:A I *D sky130_fd_sc_hd__buf_1
*CAP
1 in[5] 0.000295381
2 *180:A 0.000295381
3 *180:A *181:A 0
4 *179:A *180:A 0
*RES
1 in[5] *180:A 49.8062 
*END

*D_NET *9 0.000603153
*CONN
*P in[6] I
*I *181:A I *D sky130_fd_sc_hd__clkbuf_1
*CAP
1 in[6] 0.000301577
2 *181:A 0.000301577
3 *181:A *10:11 0
4 *180:A *181:A 0
*RES
1 in[6] *181:A 49.8062 
*END

*D_NET *10 0.0012025
*CONN
*P in[7] I
*I *182:A I *D sky130_fd_sc_hd__buf_1
*CAP
1 in[7] 0.000601252
2 *182:A 0
3 *10:11 0.000601252
4 *181:A *10:11 0
*RES
1 in[7] *10:11 30.6751 
2 *10:11 *182:A 23 
*END

*D_NET *11 0.00131257
*CONN
*P out[0] O
*I *190:X O *D sky130_fd_sc_hd__buf_2
*CAP
1 out[0] 0.000336743
2 *190:X 0.00031954
3 *11:8 0.000656283
4 out[0] out[1] 0
5 *11:8 out[1] 0
*RES
1 *190:X *11:8 44.6596 
2 *11:8 out[0] 9.1872 
*END

*D_NET *12 0.000630528
*CONN
*P out[1] O
*I *183:X O *D sky130_fd_sc_hd__buf_2
*CAP
1 out[1] 0.000315264
2 *183:X 0.000315264
3 out[1] out[2] 0
4 out[0] out[1] 0
5 *11:8 out[1] 0
*RES
1 *183:X out[1] 47.8691 
*END

*D_NET *13 0.000526372
*CONN
*P out[2] O
*I *184:X O *D sky130_fd_sc_hd__buf_2
*CAP
1 out[2] 0.000256815
2 *184:X 0.000256815
3 out[2] out[3] 0
4 out[2] *29:10 1.27424e-05
5 out[1] out[2] 0
*RES
1 *184:X out[2] 47.1648 
*END

*D_NET *14 0.000839263
*CONN
*P out[3] O
*I *185:X O *D sky130_fd_sc_hd__buf_2
*CAP
1 out[3] 0.000410698
2 *185:X 0.000410698
3 out[3] out[4] 0
4 out[3] *185:A 6.17437e-06
5 out[3] *43:10 1.16924e-05
6 out[2] out[3] 0
*RES
1 *185:X out[3] 48.4344 
*END

*D_NET *15 0.000533505
*CONN
*P out[4] O
*I *186:X O *D sky130_fd_sc_hd__buf_2
*CAP
1 out[4] 0.000266753
2 *186:X 0.000266753
3 out[4] out[5] 0
4 out[3] out[4] 0
*RES
1 *186:X out[4] 47.1648 
*END

*D_NET *16 0.00054169
*CONN
*P out[5] O
*I *187:X O *D sky130_fd_sc_hd__buf_2
*CAP
1 out[5] 0.000270845
2 *187:X 0.000270845
3 out[5] out[6] 0
4 out[4] out[5] 0
*RES
1 *187:X out[5] 47.1648 
*END

*D_NET *17 0.000507993
*CONN
*P out[6] O
*I *188:X O *D sky130_fd_sc_hd__buf_2
*CAP
1 out[6] 0.000253996
2 *188:X 0.000253996
3 out[6] out[7] 0
4 out[5] out[6] 0
*RES
1 *188:X out[6] 47.1648 
*END

*D_NET *18 0.00121999
*CONN
*P out[7] O
*I *189:X O *D sky130_fd_sc_hd__buf_2
*CAP
1 out[7] 0.000321295
2 *189:X 0.000288698
3 *18:8 0.000609993
4 out[6] out[7] 0
*RES
1 *189:X *18:8 43.9554 
2 *18:8 out[7] 9.1872 
*END

*D_NET *19 0.00736798
*CONN
*I *173:B1_N I *D sky130_fd_sc_hd__a21boi_1
*I *164:D I *D sky130_fd_sc_hd__or4_1
*I *160:B I *D sky130_fd_sc_hd__and2_1
*I *159:B I *D sky130_fd_sc_hd__nor2_1
*I *163:A3 I *D sky130_fd_sc_hd__o31a_1
*I *158:X O *D sky130_fd_sc_hd__or4_2
*CAP
1 *173:B1_N 0
2 *164:D 0
3 *160:B 0.000198589
4 *159:B 0
5 *163:A3 0.000268813
6 *158:X 6.92047e-05
7 *19:62 0.000857205
8 *19:33 0.000280338
9 *19:18 0.000350562
10 *19:16 0.000359932
11 *19:8 0.00128634
12 *160:B *160:A 0.000309723
13 *160:B *21:6 2.93335e-05
14 *160:B *40:34 1.14452e-05
15 *163:A3 *163:A1 0.000299452
16 *163:A3 *163:A2 4.95908e-05
17 *163:A3 *37:14 1.59071e-05
18 *163:A3 *39:21 0.000164019
19 *163:A3 *40:21 0.000326992
20 *163:A3 *40:34 7.79942e-05
21 *19:8 *23:14 2.54046e-05
22 *19:8 *23:25 1.97329e-05
23 *19:8 *42:12 0.000141879
24 *19:16 *164:A 0.000132428
25 *19:16 *164:C 5.3304e-05
26 *19:16 *23:8 0.000202612
27 *19:33 *160:A 1.00084e-05
28 *19:33 *39:21 2.51382e-05
29 *19:33 *39:34 0.000161748
30 *19:33 *40:34 0.000191157
31 *19:62 *173:A2 0.000178517
32 *19:62 *21:6 9.21283e-05
33 *19:62 *23:25 0.000138188
34 *19:62 *31:10 5.6234e-05
35 *19:62 *38:23 0.000554428
36 *19:62 *42:12 0.00042963
*RES
1 *158:X *19:8 39.9057 
2 *19:8 *19:16 23.41 
3 *19:16 *19:18 15 
4 *19:18 *163:A3 45.975 
5 *19:18 *19:33 2.61 
6 *19:33 *159:B 38 
7 *19:33 *160:B 42.8886 
8 *19:16 *164:D 23 
9 *19:8 *19:62 36.6464 
10 *19:62 *173:B1_N 23 
*END

*D_NET *20 0.00475333
*CONN
*I *161:A I *D sky130_fd_sc_hd__nor2_1
*I *162:B I *D sky130_fd_sc_hd__xnor2_1
*I *159:Y O *D sky130_fd_sc_hd__nor2_1
*CAP
1 *161:A 0
2 *162:B 2.14194e-05
3 *159:Y 0.000747778
4 *20:23 0.000663594
5 *20:6 0.00143279
6 *162:B *28:59 5.90675e-06
7 *20:6 *38:6 8.06804e-06
8 *20:6 *40:34 0.000749447
9 *20:23 *26:12 0.000373091
10 *20:23 *27:8 0.0003175
11 *20:23 *28:59 0.000408977
12 *20:23 *40:34 2.4754e-05
*RES
1 *159:Y *20:6 38.3907 
2 *20:6 *162:B 23.4971 
3 *20:6 *20:23 44.8936 
4 *20:23 *161:A 23 
*END

*D_NET *21 0.00530199
*CONN
*I *161:B I *D sky130_fd_sc_hd__nor2_1
*I *160:X O *D sky130_fd_sc_hd__and2_1
*CAP
1 *161:B 0
2 *160:X 0.00182315
3 *21:12 5.97514e-05
4 *21:6 0.0018829
5 *21:6 *31:10 1.80867e-05
6 *21:6 *38:23 0.00116972
7 *21:12 *30:10 0.000141879
8 *21:12 *32:8 8.50457e-05
9 *160:B *21:6 2.93335e-05
10 *19:62 *21:6 9.21283e-05
*RES
1 *160:X *21:6 49.3486 
2 *21:6 *21:12 31.9057 
3 *21:12 *161:B 23 
*END

*D_NET *22 0.00404285
*CONN
*I *165:A_N I *D sky130_fd_sc_hd__and2b_1
*I *163:X O *D sky130_fd_sc_hd__o31a_1
*CAP
1 *165:A_N 0
2 *163:X 0.00142062
3 *22:12 6.35831e-05
4 *22:6 0.0014842
5 *22:6 *37:29 0.000847669
6 *22:12 *25:10 0.000141029
7 *22:12 *26:12 8.57485e-05
*RES
1 *163:X *22:6 42.6786 
2 *22:6 *22:12 31.9057 
3 *22:12 *165:A_N 23 
*END

*D_NET *23 0.00474766
*CONN
*I *167:B I *D sky130_fd_sc_hd__xor2_1
*I *165:B I *D sky130_fd_sc_hd__and2b_1
*I *164:X O *D sky130_fd_sc_hd__or4_1
*CAP
1 *167:B 0
2 *165:B 0
3 *164:X 0.000243735
4 *23:25 0.000711145
5 *23:14 0.00100333
6 *23:8 0.00195821
7 *23:14 *37:37 0.000445304
8 *23:14 *42:12 0
9 *23:25 *42:12 0
10 *19:8 *23:14 2.54046e-05
11 *19:8 *23:25 1.97329e-05
12 *19:16 *23:8 0.000202612
13 *19:62 *23:25 0.000138188
*RES
1 *164:X *23:8 41.9564 
2 *23:8 *23:14 33.7671 
3 *23:14 *165:B 23 
4 *23:8 *23:25 28.6921 
5 *23:25 *167:B 23 
*END

*D_NET *24 0.00409169
*CONN
*I *166:A I *D sky130_fd_sc_hd__clkbuf_1
*I *165:X O *D sky130_fd_sc_hd__and2b_1
*CAP
1 *166:A 0.00108521
2 *165:X 0
3 *24:10 0.00199465
4 *24:6 0.000909436
5 *166:A *34:16 0.000102389
6 *24:10 *171:A 0
7 *24:10 *25:10 0
*RES
1 *165:X *24:6 38 
2 *24:6 *24:10 30.9914 
3 *24:10 *166:A 42.2021 
*END

*D_NET *25 0.00643551
*CONN
*I *171:A I *D sky130_fd_sc_hd__and2_1
*I *173:A2 I *D sky130_fd_sc_hd__a21boi_1
*I *169:X O *D sky130_fd_sc_hd__or3_1
*CAP
1 *171:A 0.000126174
2 *173:A2 6.40951e-05
3 *169:X 0.00115754
4 *25:10 0.000921269
5 *25:6 0.00188854
6 *171:A *26:12 9.28739e-05
7 *173:A2 *38:23 0.000178517
8 *25:6 *174:A 0.000275408
9 *25:6 *28:23 0.000810704
10 *25:6 *43:6 0.000135143
11 *25:10 *26:12 0.000465696
12 *19:62 *173:A2 0.000178517
13 *22:12 *25:10 0.000141029
14 *24:10 *171:A 0
15 *24:10 *25:10 0
*RES
1 *169:X *25:6 41.2493 
2 *25:6 *25:10 31.3436 
3 *25:10 *173:A2 40.0507 
4 *25:10 *171:A 40.61 
*END

*D_NET *26 0.00241104
*CONN
*I *171:B I *D sky130_fd_sc_hd__and2_1
*I *170:Y O *D sky130_fd_sc_hd__o21ai_1
*CAP
1 *171:B 0
2 *170:Y 4.29658e-05
3 *26:12 0.000491895
4 *26:8 0.000534861
5 *26:8 *28:33 1.09834e-05
6 *26:8 *37:37 4.91172e-06
7 *26:12 *168:A 6.96368e-05
8 *26:12 *170:A1 0.000120622
9 *26:12 *27:8 0.000117755
10 *171:A *26:12 9.28739e-05
11 *20:23 *26:12 0.000373091
12 *22:12 *26:12 8.57485e-05
13 *25:10 *26:12 0.000465696
*RES
1 *170:Y *26:8 38.6214 
2 *26:8 *26:12 30.9914 
3 *26:12 *171:B 23 
*END

*D_NET *27 0.00122699
*CONN
*I *172:A I *D sky130_fd_sc_hd__clkbuf_1
*I *171:X O *D sky130_fd_sc_hd__and2_1
*CAP
1 *172:A 0
2 *171:X 0.000297597
3 *27:8 0.000297597
4 *27:8 *168:A 0.00019654
5 *27:8 *32:8 0
6 *20:23 *27:8 0.0003175
7 *26:12 *27:8 0.000117755
*RES
1 *171:X *27:8 45.54 
2 *27:8 *172:A 38 
*END

*D_NET *28 0.013864
*CONN
*I *174:A I *D sky130_fd_sc_hd__clkbuf_1
*I *168:B I *D sky130_fd_sc_hd__xor2_1
*I *158:D I *D sky130_fd_sc_hd__or4_2
*I *170:A2 I *D sky130_fd_sc_hd__o21ai_1
*I *169:C I *D sky130_fd_sc_hd__or3_1
*I *175:X O *D sky130_fd_sc_hd__clkbuf_2
*CAP
1 *174:A 0.000125376
2 *168:B 0
3 *158:D 4.54044e-05
4 *170:A2 0
5 *169:C 0
6 *175:X 4.99221e-05
7 *28:59 0.000821478
8 *28:40 0.00101183
9 *28:33 0.000531818
10 *28:27 0.000752509
11 *28:23 0.000619186
12 *28:14 0.0009718
13 *28:8 0.000603654
14 *158:D *36:38 2.64616e-05
15 *28:14 *164:C 0.000404986
16 *28:14 *34:20 0.00141434
17 *28:14 *36:10 0.000556913
18 *28:14 *36:14 1.60583e-05
19 *28:14 *36:20 9.23268e-05
20 *28:14 *41:8 0.00043554
21 *28:27 *35:10 0.000135616
22 *28:27 *42:12 3.56796e-05
23 *28:33 *37:37 0.000992116
24 *28:40 *158:B 0.00022495
25 *28:40 *35:10 0.000427878
26 *28:40 *37:37 0.000187612
27 *28:40 *42:12 5.01232e-06
28 *28:59 *158:A 0.000145823
29 *28:59 *158:B 0.00010803
30 *28:59 *168:A 0.000404994
31 *28:59 *33:8 0.000122995
32 *28:59 *35:10 0.000435943
33 *28:59 *38:23 1.83667e-05
34 *28:59 *40:34 0.000574096
35 *162:B *28:59 5.90675e-06
36 *5:15 *28:8 5.3304e-05
37 *20:23 *28:59 0.000408977
38 *25:6 *174:A 0.000275408
39 *25:6 *28:23 0.000810704
40 *26:8 *28:33 1.09834e-05
*RES
1 *175:X *28:8 38.6214 
2 *28:8 *28:14 36.8121 
3 *28:14 *169:C 23 
4 *28:14 *28:23 11.1236 
5 *28:23 *28:27 16.9057 
6 *28:27 *28:33 27.0764 
7 *28:33 *170:A2 23 
8 *28:27 *28:40 5.77929 
9 *28:40 *158:D 38.6214 
10 *28:40 *28:59 38.1171 
11 *28:59 *168:B 23 
12 *28:23 *174:A 26.5007 
*END

*D_NET *29 0.00132232
*CONN
*I *183:A I *D sky130_fd_sc_hd__buf_2
*I *168:X O *D sky130_fd_sc_hd__xor2_1
*CAP
1 *183:A 0
2 *168:X 0.000482345
3 *29:10 0.000482345
4 *29:10 *185:A 6.76645e-05
5 *29:10 *43:10 0.000277228
6 out[2] *29:10 1.27424e-05
*RES
1 *168:X *29:10 47.9429 
2 *29:10 *183:A 38 
*END

*D_NET *30 0.00245202
*CONN
*I *184:A I *D sky130_fd_sc_hd__buf_2
*I *172:X O *D sky130_fd_sc_hd__clkbuf_1
*CAP
1 *184:A 0.000277264
2 *172:X 0.000702404
3 *30:10 0.000979668
4 *30:10 *31:10 0.000167443
5 *30:10 *32:8 0.000183364
6 *30:10 *43:10 0
7 *21:12 *30:10 0.000141879
*RES
1 *172:X *30:10 49.9729 
2 *30:10 *184:A 41.9564 
*END

*D_NET *31 0.00165306
*CONN
*I *185:A I *D sky130_fd_sc_hd__buf_2
*I *173:Y O *D sky130_fd_sc_hd__a21boi_1
*CAP
1 *185:A 0.000208031
2 *173:Y 0.000460695
3 *31:10 0.000668726
4 out[3] *185:A 6.17437e-06
5 *19:62 *31:10 5.6234e-05
6 *21:6 *31:10 1.80867e-05
7 *29:10 *185:A 6.76645e-05
8 *30:10 *31:10 0.000167443
*RES
1 *173:Y *31:10 44.6907 
2 *31:10 *185:A 41.48 
*END

*D_NET *32 0.00196144
*CONN
*I *186:A I *D sky130_fd_sc_hd__buf_2
*I *161:Y O *D sky130_fd_sc_hd__nor2_1
*CAP
1 *186:A 0.000285126
2 *161:Y 0.000561391
3 *32:8 0.000846517
4 *32:8 *168:A 0
5 *32:8 *33:14 0
6 *32:8 *43:10 0
7 *21:12 *32:8 8.50457e-05
8 *27:8 *32:8 0
9 *30:10 *32:8 0.000183364
*RES
1 *161:Y *32:8 48.7093 
2 *32:8 *186:A 42.9093 
*END

*D_NET *33 0.00334527
*CONN
*I *187:A I *D sky130_fd_sc_hd__buf_2
*I *162:Y O *D sky130_fd_sc_hd__xnor2_1
*CAP
1 *187:A 0
2 *162:Y 0.000334989
3 *33:14 0.000851241
4 *33:8 0.00118623
5 *33:8 *168:A 2.64616e-05
6 *33:14 *168:A 0.000355699
7 *33:14 *170:A1 0.000467657
8 *28:59 *33:8 0.000122995
9 *32:8 *33:14 0
*RES
1 *162:Y *33:8 42.4329 
2 *33:8 *33:14 33.9536 
3 *33:14 *187:A 23 
*END

*D_NET *34 0.00929155
*CONN
*I *188:A I *D sky130_fd_sc_hd__buf_2
*I *166:X O *D sky130_fd_sc_hd__clkbuf_1
*CAP
1 *188:A 0
2 *166:X 0.000188133
3 *34:24 0.0013066
4 *34:20 0.00195592
5 *34:16 0.000837451
6 *34:16 *36:10 5.11935e-06
7 *34:16 *37:8 5.56356e-05
8 *34:20 *36:10 1.76055e-05
9 *34:20 *37:14 0.00104786
10 *34:20 *41:8 7.51813e-05
11 *34:24 *189:A 0.00167281
12 *34:24 *42:8 0.000576265
13 *166:A *34:16 0.000102389
14 *5:15 *34:16 3.623e-05
15 *28:14 *34:20 0.00141434
*RES
1 *166:X *34:16 41.9875 
2 *34:16 *34:20 37.1539 
3 *34:20 *34:24 33.9921 
4 *34:24 *188:A 23 
*END

*D_NET *35 0.00641298
*CONN
*I *189:A I *D sky130_fd_sc_hd__buf_2
*I *167:X O *D sky130_fd_sc_hd__xor2_1
*CAP
1 *189:A 0.000651142
2 *167:X 0
3 *35:10 0.00182408
4 *35:6 0.00117293
5 *35:10 *38:23 9.25767e-05
6 *35:10 *42:12 0
7 *28:27 *35:10 0.000135616
8 *28:40 *35:10 0.000427878
9 *28:59 *35:10 0.000435943
10 *34:24 *189:A 0.00167281
*RES
1 *167:X *35:6 38 
2 *35:6 *35:10 39.795 
3 *35:10 *189:A 41.2493 
*END

*D_NET *36 0.0103927
*CONN
*I *168:A I *D sky130_fd_sc_hd__xor2_1
*I *170:A1 I *D sky130_fd_sc_hd__o21ai_1
*I *158:C I *D sky130_fd_sc_hd__or4_2
*I *169:B I *D sky130_fd_sc_hd__or3_1
*I *176:X O *D sky130_fd_sc_hd__dlymetal6s2s_1
*CAP
1 *168:A 0.000345362
2 *170:A1 0.000170077
3 *158:C 0
4 *169:B 0
5 *176:X 0.000431959
6 *36:38 0.00126209
7 *36:29 0.00157913
8 *36:20 0.00065889
9 *36:14 0.00163179
10 *36:10 0.000572383
11 *36:14 *164:C 0.000197479
12 *36:20 *164:C 0.00021382
13 *36:20 *41:8 0.00052154
14 *36:29 *39:8 0.000186096
15 *158:D *36:38 2.64616e-05
16 *178:A *36:10 3.84556e-05
17 *3:11 *36:10 0.000227497
18 *5:15 *36:10 0
19 *26:12 *168:A 6.96368e-05
20 *26:12 *170:A1 0.000120622
21 *27:8 *168:A 0.00019654
22 *28:14 *36:10 0.000556913
23 *28:14 *36:14 1.60583e-05
24 *28:14 *36:20 9.23268e-05
25 *28:59 *168:A 0.000404994
26 *32:8 *168:A 0
27 *33:8 *168:A 2.64616e-05
28 *33:14 *168:A 0.000355699
29 *33:14 *170:A1 0.000467657
30 *34:16 *36:10 5.11935e-06
31 *34:20 *36:10 1.76055e-05
*RES
1 *176:X *36:10 49.5068 
2 *36:10 *36:14 3.75964 
3 *36:14 *36:20 28.6093 
4 *36:20 *169:B 23 
5 *36:14 *36:29 28.9614 
6 *36:29 *158:C 23 
7 *36:29 *36:38 27.5321 
8 *36:38 *170:A1 44.1314 
9 *36:38 *168:A 48.3364 
*END

*D_NET *37 0.00810103
*CONN
*I *158:B I *D sky130_fd_sc_hd__or4_2
*I *170:B1 I *D sky130_fd_sc_hd__o21ai_1
*I *169:A I *D sky130_fd_sc_hd__or3_1
*I *177:X O *D sky130_fd_sc_hd__buf_1
*CAP
1 *158:B 9.03423e-05
2 *170:B1 0
3 *169:A 0
4 *177:X 4.33954e-05
5 *37:37 0.0003629
6 *37:29 0.00077632
7 *37:20 0.00028287
8 *37:14 0.00130187
9 *37:8 0.000739319
10 *158:B *158:A 9.168e-05
11 *158:B *42:12 0.000117738
12 *37:14 *163:A2 0.000100061
13 *37:14 *163:B1 2.93431e-05
14 *37:20 *40:10 4.89774e-05
15 *37:29 *163:A2 9.79925e-05
16 *37:37 *42:12 8.82154e-05
17 *163:A3 *37:14 1.59071e-05
18 *22:6 *37:29 0.000847669
19 *23:14 *37:37 0.000445304
20 *26:8 *37:37 4.91172e-06
21 *28:33 *37:37 0.000992116
22 *28:40 *158:B 0.00022495
23 *28:40 *37:37 0.000187612
24 *28:59 *158:B 0.00010803
25 *34:16 *37:8 5.56356e-05
26 *34:20 *37:14 0.00104786
*RES
1 *177:X *37:8 38.6214 
2 *37:8 *37:14 31.4057 
3 *37:14 *37:20 35.075 
4 *37:20 *169:A 23 
5 *37:14 *37:29 24.6736 
6 *37:29 *37:37 29.21 
7 *37:37 *170:B1 23 
8 *37:29 *158:B 42.3707 
*END

*D_NET *38 0.00641107
*CONN
*I *173:A1 I *D sky130_fd_sc_hd__a21boi_1
*I *158:A I *D sky130_fd_sc_hd__or4_2
*I *178:X O *D sky130_fd_sc_hd__clkbuf_1
*CAP
1 *173:A1 0
2 *158:A 0.000124243
3 *178:X 0.000994149
4 *38:23 0.000390838
5 *38:8 0.00051508
6 *38:6 0.000994149
7 *158:A *42:12 0.000382564
8 *38:6 *159:A 2.93335e-05
9 *38:6 *40:34 0.000404675
10 *38:23 *42:12 0.000316858
11 *158:B *158:A 9.168e-05
12 *173:A2 *38:23 0.000178517
13 *19:62 *38:23 0.000554428
14 *20:6 *38:6 8.06804e-06
15 *21:6 *38:23 0.00116972
16 *28:59 *158:A 0.000145823
17 *28:59 *38:23 1.83667e-05
18 *35:10 *38:23 9.25767e-05
*RES
1 *178:X *38:6 36.0086 
2 *38:6 *38:8 15 
3 *38:8 *158:A 43.075 
4 *38:8 *38:23 32.3793 
5 *38:23 *173:A1 23 
*END

*D_NET *39 0.0035695
*CONN
*I *160:A I *D sky130_fd_sc_hd__and2_1
*I *159:A I *D sky130_fd_sc_hd__nor2_1
*I *164:A I *D sky130_fd_sc_hd__or4_1
*I *163:A1 I *D sky130_fd_sc_hd__o31a_1
*I *179:X O *D sky130_fd_sc_hd__buf_1
*CAP
1 *160:A 0.000230978
2 *159:A 3.1309e-05
3 *164:A 0.000141824
4 *163:A1 0.000168679
5 *179:X 0.000299838
6 *39:34 0.000360833
7 *39:21 0.000350655
8 *39:8 0.000578803
9 *163:A1 *163:A2 5.79559e-05
10 *163:A1 *40:21 1.03972e-05
11 *164:A *164:C 2.02872e-05
12 *160:B *160:A 0.000309723
13 *163:A3 *163:A1 0.000299452
14 *163:A3 *39:21 0.000164019
15 *19:16 *164:A 0.000132428
16 *19:33 *160:A 1.00084e-05
17 *19:33 *39:21 2.51382e-05
18 *19:33 *39:34 0.000161748
19 *36:29 *39:8 0.000186096
20 *38:6 *159:A 2.93335e-05
*RES
1 *179:X *39:8 41.9564 
2 *39:8 *163:A1 42.2879 
3 *39:8 *39:21 2.61 
4 *39:21 *164:A 40.5479 
5 *39:21 *39:34 2.25786 
6 *39:34 *159:A 38.6214 
7 *39:34 *160:A 43.0129 
*END

*D_NET *40 0.00540839
*CONN
*I *162:A I *D sky130_fd_sc_hd__xnor2_1
*I *164:B I *D sky130_fd_sc_hd__or4_1
*I *163:A2 I *D sky130_fd_sc_hd__o31a_1
*I *180:X O *D sky130_fd_sc_hd__buf_1
*CAP
1 *162:A 0
2 *164:B 0
3 *163:A2 5.43971e-05
4 *180:X 0.000532781
5 *40:34 0.000547951
6 *40:21 0.00075425
7 *40:10 0.000793478
8 *160:B *40:34 1.14452e-05
9 *163:A1 *163:A2 5.79559e-05
10 *163:A1 *40:21 1.03972e-05
11 *163:A3 *163:A2 4.95908e-05
12 *163:A3 *40:21 0.000326992
13 *163:A3 *40:34 7.79942e-05
14 *19:33 *40:34 0.000191157
15 *20:6 *40:34 0.000749447
16 *20:23 *40:34 2.4754e-05
17 *28:59 *40:34 0.000574096
18 *37:14 *163:A2 0.000100061
19 *37:20 *40:10 4.89774e-05
20 *37:29 *163:A2 9.79925e-05
21 *38:6 *40:34 0.000404675
*RES
1 *180:X *40:10 44.815 
2 *40:10 *163:A2 40.0507 
3 *40:10 *40:21 5.075 
4 *40:21 *164:B 38 
5 *40:21 *40:34 34.0571 
6 *40:34 *162:A 23 
*END

*D_NET *41 0.00359017
*CONN
*I *164:C I *D sky130_fd_sc_hd__or4_1
*I *163:B1 I *D sky130_fd_sc_hd__o31a_1
*I *181:X O *D sky130_fd_sc_hd__clkbuf_1
*CAP
1 *164:C 0.000477218
2 *163:B1 0.000148787
3 *181:X 0.000193342
4 *41:8 0.000819346
5 *164:A *164:C 2.02872e-05
6 *19:16 *164:C 5.3304e-05
7 *28:14 *164:C 0.000404986
8 *28:14 *41:8 0.00043554
9 *34:20 *41:8 7.51813e-05
10 *36:14 *164:C 0.000197479
11 *36:20 *164:C 0.00021382
12 *36:20 *41:8 0.00052154
13 *37:14 *163:B1 2.93431e-05
*RES
1 *181:X *41:8 45.8921 
2 *41:8 *163:B1 40.0507 
3 *41:8 *164:C 48.3364 
*END

*D_NET *42 0.00549473
*CONN
*I *167:A I *D sky130_fd_sc_hd__xor2_1
*I *182:X O *D sky130_fd_sc_hd__buf_1
*CAP
1 *167:A 0
2 *182:X 0.000676549
3 *42:12 0.0010239
4 *42:8 0.00170045
5 *158:A *42:12 0.000382564
6 *158:B *42:12 0.000117738
7 *19:8 *42:12 0.000141879
8 *19:62 *42:12 0.00042963
9 *23:14 *42:12 0
10 *23:25 *42:12 0
11 *28:27 *42:12 3.56796e-05
12 *28:40 *42:12 5.01232e-06
13 *34:24 *42:8 0.000576265
14 *35:10 *42:12 0
15 *37:37 *42:12 8.82154e-05
16 *38:23 *42:12 0.000316858
*RES
1 *182:X *42:8 49.1029 
2 *42:8 *42:12 39.795 
3 *42:12 *167:A 23 
*END

*D_NET *43 0.00469113
*CONN
*I *190:A I *D sky130_fd_sc_hd__buf_2
*I *174:X O *D sky130_fd_sc_hd__clkbuf_1
*CAP
1 *190:A 6.78703e-05
2 *174:X 0.00087931
3 *43:10 0.00125423
4 *43:6 0.00206566
5 out[3] *43:10 1.16924e-05
6 *25:6 *43:6 0.000135143
7 *29:10 *43:10 0.000277228
8 *30:10 *43:10 0
9 *32:8 *43:10 0
*RES
1 *174:X *43:6 38.8671 
2 *43:6 *43:10 38.3864 
3 *43:10 *190:A 39.0979 
*END
