*SPEF "ieee 1481-1999"
*DESIGN "zero_to_five_counter"
*DATE "01:03:06 Friday May 23, 2025"
*VENDOR "The OpenROAD Project"
*PROGRAM "OpenROAD"
*VERSION "b16bda7e82721d10566ff7e2b68f1ff0be9f9e38"
*DESIGN_FLOW "NAME_SCOPE LOCAL" "PIN_CAP NONE"
*DIVIDER /
*DELIMITER :
*BUS_DELIMITER []
*T_UNIT 1 NS
*C_UNIT 1 PF
*R_UNIT 1 OHM
*L_UNIT 1 HENRY

*NAME_MAP
*3 clk
*4 count[0]
*5 count[1]
*6 count[2]
*7 reset
*8 _000_
*9 _001_
*10 _002_
*11 _003_
*12 _004_
*13 _005_
*14 _006_
*15 _007_
*16 _008_
*17 _009_
*18 _010_
*19 _011_
*20 _012_
*21 _013_
*22 _014_
*23 _015_
*24 _016_
*25 _017_
*26 _018_
*27 _019_
*28 _020_
*29 _021_
*30 _022_
*31 _023_
*32 _024_
*33 _025_
*34 _026_
*35 _027_
*36 _028_
*37 _029_
*38 _030_
*39 _031_
*40 _032_
*41 _033_
*42 _034_
*43 _035_
*44 _036_
*45 _037_
*46 _038_
*47 _039_
*48 _040_
*49 _041_
*50 _042_
*51 _043_
*52 _044_
*53 _045_
*54 _046_
*55 _047_
*56 _048_
*57 _049_
*58 _050_
*59 _051_
*60 _052_
*61 _053_
*62 _054_
*63 _055_
*64 _056_
*65 _057_
*66 _058_
*67 _059_
*68 _060_
*69 _061_
*70 _062_
*71 _063_
*72 _064_
*73 _065_
*74 _066_
*75 _067_
*76 _068_
*77 _069_
*78 _070_
*79 _071_
*80 _072_
*81 _073_
*82 _074_
*83 _075_
*84 _076_
*85 _077_
*86 _078_
*87 _079_
*88 _080_
*89 _081_
*90 _082_
*91 _083_
*92 _084_
*93 _085_
*94 _086_
*95 _087_
*96 _088_
*97 _089_
*98 _090_
*99 _091_
*100 _092_
*101 _093_
*102 _094_
*103 _095_
*104 _096_
*105 _097_
*106 _098_
*107 _099_
*108 _100_
*109 _101_
*110 _102_
*111 _103_
*112 _104_
*113 _105_
*114 _106_
*115 _107_
*116 _108_
*117 _109_
*118 _110_
*119 _111_
*120 _112_
*121 _113_
*122 _114_
*123 _115_
*124 _116_
*125 _117_
*126 _118_
*127 _119_
*128 _120_
*129 _121_
*130 _122_
*131 _123_
*132 _124_
*133 _125_
*134 _126_
*135 _127_
*136 _128_
*137 _129_
*138 _130_
*139 _131_
*140 _132_
*141 _133_
*142 _134_
*143 _135_
*144 _136_
*145 _137_
*146 _138_
*147 _139_
*148 _140_
*149 _141_
*150 _142_
*151 _143_
*152 _144_
*153 _145_
*154 _146_
*155 _147_
*156 _148_
*157 _149_
*158 _150_
*159 _151_
*160 _152_
*161 _153_
*162 _154_
*163 _155_
*164 _156_
*165 _157_
*166 _158_
*167 _159_
*168 _160_
*169 _161_
*170 _162_
*171 _163_
*172 clknet_0_clk
*173 clknet_2_0__leaf_clk
*174 clknet_2_1__leaf_clk
*175 clknet_2_2__leaf_clk
*176 clknet_2_3__leaf_clk
*177 net1
*178 net2
*179 net3
*180 one_second_counter\[0\]
*181 one_second_counter\[10\]
*182 one_second_counter\[11\]
*183 one_second_counter\[12\]
*184 one_second_counter\[13\]
*185 one_second_counter\[14\]
*186 one_second_counter\[15\]
*187 one_second_counter\[16\]
*188 one_second_counter\[17\]
*189 one_second_counter\[18\]
*190 one_second_counter\[19\]
*191 one_second_counter\[1\]
*192 one_second_counter\[20\]
*193 one_second_counter\[21\]
*194 one_second_counter\[22\]
*195 one_second_counter\[23\]
*196 one_second_counter\[24\]
*197 one_second_counter\[25\]
*198 one_second_counter\[26\]
*199 one_second_counter\[2\]
*200 one_second_counter\[3\]
*201 one_second_counter\[4\]
*202 one_second_counter\[5\]
*203 one_second_counter\[6\]
*204 one_second_counter\[7\]
*205 one_second_counter\[8\]
*206 one_second_counter\[9\]
*207 FILLER_0_0_101
*208 FILLER_0_0_110
*209 FILLER_0_0_113
*210 FILLER_0_0_15
*211 FILLER_0_0_27
*212 FILLER_0_0_29
*213 FILLER_0_0_3
*214 FILLER_0_0_41
*215 FILLER_0_0_53
*216 FILLER_0_0_83
*217 FILLER_0_0_85
*218 FILLER_0_0_97
*219 FILLER_0_10_103
*220 FILLER_0_10_11
*221 FILLER_0_10_18
*222 FILLER_0_10_22
*223 FILLER_0_10_29
*224 FILLER_0_10_3
*225 FILLER_0_10_41
*226 FILLER_0_10_53
*227 FILLER_0_10_60
*228 FILLER_0_10_72
*229 FILLER_0_10_85
*230 FILLER_0_10_91
*231 FILLER_0_11_105
*232 FILLER_0_11_111
*233 FILLER_0_11_113
*234 FILLER_0_11_12
*235 FILLER_0_11_24
*236 FILLER_0_11_3
*237 FILLER_0_11_54
*238 FILLER_0_11_57
*239 FILLER_0_11_69
*240 FILLER_0_11_84
*241 FILLER_0_11_92
*242 FILLER_0_11_97
*243 FILLER_0_12_109
*244 FILLER_0_12_12
*245 FILLER_0_12_121
*246 FILLER_0_12_20
*247 FILLER_0_12_25
*248 FILLER_0_12_29
*249 FILLER_0_12_3
*250 FILLER_0_12_35
*251 FILLER_0_12_43
*252 FILLER_0_12_73
*253 FILLER_0_12_78
*254 FILLER_0_12_85
*255 FILLER_0_12_97
*256 FILLER_0_13_102
*257 FILLER_0_13_110
*258 FILLER_0_13_113
*259 FILLER_0_13_12
*260 FILLER_0_13_3
*261 FILLER_0_13_37
*262 FILLER_0_13_45
*263 FILLER_0_13_52
*264 FILLER_0_13_57
*265 FILLER_0_13_69
*266 FILLER_0_13_78
*267 FILLER_0_13_90
*268 FILLER_0_14_105
*269 FILLER_0_14_115
*270 FILLER_0_14_121
*271 FILLER_0_14_15
*272 FILLER_0_14_27
*273 FILLER_0_14_29
*274 FILLER_0_14_3
*275 FILLER_0_14_85
*276 FILLER_0_14_97
*277 FILLER_0_15_106
*278 FILLER_0_15_11
*279 FILLER_0_15_113
*280 FILLER_0_15_19
*281 FILLER_0_15_23
*282 FILLER_0_15_3
*283 FILLER_0_15_45
*284 FILLER_0_15_53
*285 FILLER_0_15_57
*286 FILLER_0_15_61
*287 FILLER_0_15_7
*288 FILLER_0_15_82
*289 FILLER_0_15_94
*290 FILLER_0_16_101
*291 FILLER_0_16_107
*292 FILLER_0_16_119
*293 FILLER_0_16_15
*294 FILLER_0_16_27
*295 FILLER_0_16_29
*296 FILLER_0_16_3
*297 FILLER_0_16_37
*298 FILLER_0_16_48
*299 FILLER_0_16_60
*300 FILLER_0_16_85
*301 FILLER_0_16_97
*302 FILLER_0_17_105
*303 FILLER_0_17_111
*304 FILLER_0_17_113
*305 FILLER_0_17_14
*306 FILLER_0_17_22
*307 FILLER_0_17_28
*308 FILLER_0_17_3
*309 FILLER_0_17_40
*310 FILLER_0_17_52
*311 FILLER_0_17_65
*312 FILLER_0_17_77
*313 FILLER_0_17_85
*314 FILLER_0_17_93
*315 FILLER_0_18_15
*316 FILLER_0_18_27
*317 FILLER_0_18_29
*318 FILLER_0_18_3
*319 FILLER_0_18_46
*320 FILLER_0_18_58
*321 FILLER_0_18_70
*322 FILLER_0_18_82
*323 FILLER_0_18_85
*324 FILLER_0_18_99
*325 FILLER_0_19_110
*326 FILLER_0_19_113
*327 FILLER_0_19_117
*328 FILLER_0_19_121
*329 FILLER_0_19_14
*330 FILLER_0_19_28
*331 FILLER_0_19_47
*332 FILLER_0_19_54
*333 FILLER_0_19_62
*334 FILLER_0_19_74
*335 FILLER_0_19_82
*336 FILLER_0_19_9
*337 FILLER_0_1_107
*338 FILLER_0_1_111
*339 FILLER_0_1_113
*340 FILLER_0_1_15
*341 FILLER_0_1_26
*342 FILLER_0_1_3
*343 FILLER_0_1_38
*344 FILLER_0_1_50
*345 FILLER_0_1_77
*346 FILLER_0_1_89
*347 FILLER_0_1_97
*348 FILLER_0_20_119
*349 FILLER_0_20_29
*350 FILLER_0_20_3
*351 FILLER_0_20_35
*352 FILLER_0_20_42
*353 FILLER_0_20_46
*354 FILLER_0_20_67
*355 FILLER_0_20_7
*356 FILLER_0_20_79
*357 FILLER_0_20_92
*358 FILLER_0_21_101
*359 FILLER_0_21_113
*360 FILLER_0_21_16
*361 FILLER_0_21_28
*362 FILLER_0_21_3
*363 FILLER_0_21_40
*364 FILLER_0_21_52
*365 FILLER_0_21_71
*366 FILLER_0_21_77
*367 FILLER_0_22_109
*368 FILLER_0_22_117
*369 FILLER_0_22_122
*370 FILLER_0_22_16
*371 FILLER_0_22_20
*372 FILLER_0_22_3
*373 FILLER_0_22_35
*374 FILLER_0_22_43
*375 FILLER_0_22_56
*376 FILLER_0_22_63
*377 FILLER_0_22_68
*378 FILLER_0_22_77
*379 FILLER_0_22_8
*380 FILLER_0_22_83
*381 FILLER_0_23_106
*382 FILLER_0_23_113
*383 FILLER_0_23_121
*384 FILLER_0_23_15
*385 FILLER_0_23_27
*386 FILLER_0_23_3
*387 FILLER_0_23_34
*388 FILLER_0_23_42
*389 FILLER_0_23_77
*390 FILLER_0_24_106
*391 FILLER_0_24_110
*392 FILLER_0_24_18
*393 FILLER_0_24_26
*394 FILLER_0_24_36
*395 FILLER_0_24_48
*396 FILLER_0_24_56
*397 FILLER_0_24_6
*398 FILLER_0_24_60
*399 FILLER_0_24_68
*400 FILLER_0_24_72
*401 FILLER_0_25_105
*402 FILLER_0_25_111
*403 FILLER_0_25_116
*404 FILLER_0_25_124
*405 FILLER_0_25_15
*406 FILLER_0_25_27
*407 FILLER_0_25_3
*408 FILLER_0_25_39
*409 FILLER_0_25_45
*410 FILLER_0_25_54
*411 FILLER_0_25_57
*412 FILLER_0_25_69
*413 FILLER_0_25_81
*414 FILLER_0_25_89
*415 FILLER_0_25_93
*416 FILLER_0_26_103
*417 FILLER_0_26_118
*418 FILLER_0_26_15
*419 FILLER_0_26_27
*420 FILLER_0_26_29
*421 FILLER_0_26_3
*422 FILLER_0_26_41
*423 FILLER_0_26_53
*424 FILLER_0_26_65
*425 FILLER_0_26_69
*426 FILLER_0_26_73
*427 FILLER_0_26_81
*428 FILLER_0_26_85
*429 FILLER_0_26_89
*430 FILLER_0_26_97
*431 FILLER_0_27_107
*432 FILLER_0_27_111
*433 FILLER_0_27_121
*434 FILLER_0_27_16
*435 FILLER_0_27_25
*436 FILLER_0_27_3
*437 FILLER_0_27_37
*438 FILLER_0_27_52
*439 FILLER_0_27_60
*440 FILLER_0_27_83
*441 FILLER_0_27_9
*442 FILLER_0_27_95
*443 FILLER_0_28_109
*444 FILLER_0_28_11
*445 FILLER_0_28_121
*446 FILLER_0_28_17
*447 FILLER_0_28_25
*448 FILLER_0_28_29
*449 FILLER_0_28_3
*450 FILLER_0_28_37
*451 FILLER_0_28_47
*452 FILLER_0_28_79
*453 FILLER_0_28_83
*454 FILLER_0_28_85
*455 FILLER_0_28_97
*456 FILLER_0_29_102
*457 FILLER_0_29_110
*458 FILLER_0_29_113
*459 FILLER_0_29_15
*460 FILLER_0_29_27
*461 FILLER_0_29_3
*462 FILLER_0_29_31
*463 FILLER_0_29_52
*464 FILLER_0_29_57
*465 FILLER_0_2_11
*466 FILLER_0_2_120
*467 FILLER_0_2_124
*468 FILLER_0_2_23
*469 FILLER_0_2_27
*470 FILLER_0_2_37
*471 FILLER_0_2_49
*472 FILLER_0_2_57
*473 FILLER_0_2_63
*474 FILLER_0_2_71
*475 FILLER_0_2_75
*476 FILLER_0_2_83
*477 FILLER_0_2_91
*478 FILLER_0_30_109
*479 FILLER_0_30_11
*480 FILLER_0_30_121
*481 FILLER_0_30_24
*482 FILLER_0_30_52
*483 FILLER_0_30_83
*484 FILLER_0_30_85
*485 FILLER_0_30_97
*486 FILLER_0_31_106
*487 FILLER_0_31_113
*488 FILLER_0_31_15
*489 FILLER_0_31_27
*490 FILLER_0_31_29
*491 FILLER_0_31_3
*492 FILLER_0_31_35
*493 FILLER_0_31_49
*494 FILLER_0_31_55
*495 FILLER_0_31_57
*496 FILLER_0_31_61
*497 FILLER_0_31_69
*498 FILLER_0_31_81
*499 FILLER_0_31_85
*500 FILLER_0_31_97
*501 FILLER_0_3_113
*502 FILLER_0_3_121
*503 FILLER_0_3_23
*504 FILLER_0_3_3
*505 FILLER_0_3_35
*506 FILLER_0_3_47
*507 FILLER_0_3_55
*508 FILLER_0_3_57
*509 FILLER_0_4_110
*510 FILLER_0_4_122
*511 FILLER_0_4_15
*512 FILLER_0_4_19
*513 FILLER_0_4_23
*514 FILLER_0_4_27
*515 FILLER_0_4_3
*516 FILLER_0_4_36
*517 FILLER_0_4_63
*518 FILLER_0_4_74
*519 FILLER_0_4_78
*520 FILLER_0_5_103
*521 FILLER_0_5_110
*522 FILLER_0_5_118
*523 FILLER_0_5_124
*524 FILLER_0_5_18
*525 FILLER_0_5_24
*526 FILLER_0_5_36
*527 FILLER_0_5_48
*528 FILLER_0_5_6
*529 FILLER_0_5_60
*530 FILLER_0_5_72
*531 FILLER_0_5_97
*532 FILLER_0_6_10
*533 FILLER_0_6_103
*534 FILLER_0_6_124
*535 FILLER_0_6_22
*536 FILLER_0_6_29
*537 FILLER_0_6_37
*538 FILLER_0_6_49
*539 FILLER_0_6_61
*540 FILLER_0_6_72
*541 FILLER_0_6_85
*542 FILLER_0_6_97
*543 FILLER_0_7_111
*544 FILLER_0_7_113
*545 FILLER_0_7_3
*546 FILLER_0_7_30
*547 FILLER_0_7_42
*548 FILLER_0_7_53
*549 FILLER_0_7_57
*550 FILLER_0_7_73
*551 FILLER_0_7_85
*552 FILLER_0_7_93
*553 FILLER_0_7_99
*554 FILLER_0_8_110
*555 FILLER_0_8_122
*556 FILLER_0_8_15
*557 FILLER_0_8_27
*558 FILLER_0_8_29
*559 FILLER_0_8_3
*560 FILLER_0_8_33
*561 FILLER_0_8_65
*562 FILLER_0_8_77
*563 FILLER_0_8_83
*564 FILLER_0_8_9
*565 FILLER_0_9_107
*566 FILLER_0_9_111
*567 FILLER_0_9_113
*568 FILLER_0_9_121
*569 FILLER_0_9_14
*570 FILLER_0_9_26
*571 FILLER_0_9_3
*572 FILLER_0_9_38
*573 FILLER_0_9_42
*574 FILLER_0_9_54
*575 FILLER_0_9_62
*576 PHY_EDGE_ROW_0_Left_32
*577 PHY_EDGE_ROW_0_Right_0
*578 PHY_EDGE_ROW_10_Left_42
*579 PHY_EDGE_ROW_10_Right_10
*580 PHY_EDGE_ROW_11_Left_43
*581 PHY_EDGE_ROW_11_Right_11
*582 PHY_EDGE_ROW_12_Left_44
*583 PHY_EDGE_ROW_12_Right_12
*584 PHY_EDGE_ROW_13_Left_45
*585 PHY_EDGE_ROW_13_Right_13
*586 PHY_EDGE_ROW_14_Left_46
*587 PHY_EDGE_ROW_14_Right_14
*588 PHY_EDGE_ROW_15_Left_47
*589 PHY_EDGE_ROW_15_Right_15
*590 PHY_EDGE_ROW_16_Left_48
*591 PHY_EDGE_ROW_16_Right_16
*592 PHY_EDGE_ROW_17_Left_49
*593 PHY_EDGE_ROW_17_Right_17
*594 PHY_EDGE_ROW_18_Left_50
*595 PHY_EDGE_ROW_18_Right_18
*596 PHY_EDGE_ROW_19_Left_51
*597 PHY_EDGE_ROW_19_Right_19
*598 PHY_EDGE_ROW_1_Left_33
*599 PHY_EDGE_ROW_1_Right_1
*600 PHY_EDGE_ROW_20_Left_52
*601 PHY_EDGE_ROW_20_Right_20
*602 PHY_EDGE_ROW_21_Left_53
*603 PHY_EDGE_ROW_21_Right_21
*604 PHY_EDGE_ROW_22_Left_54
*605 PHY_EDGE_ROW_22_Right_22
*606 PHY_EDGE_ROW_23_Left_55
*607 PHY_EDGE_ROW_23_Right_23
*608 PHY_EDGE_ROW_24_Left_56
*609 PHY_EDGE_ROW_24_Right_24
*610 PHY_EDGE_ROW_25_Left_57
*611 PHY_EDGE_ROW_25_Right_25
*612 PHY_EDGE_ROW_26_Left_58
*613 PHY_EDGE_ROW_26_Right_26
*614 PHY_EDGE_ROW_27_Left_59
*615 PHY_EDGE_ROW_27_Right_27
*616 PHY_EDGE_ROW_28_Left_60
*617 PHY_EDGE_ROW_28_Right_28
*618 PHY_EDGE_ROW_29_Left_61
*619 PHY_EDGE_ROW_29_Right_29
*620 PHY_EDGE_ROW_2_Left_34
*621 PHY_EDGE_ROW_2_Right_2
*622 PHY_EDGE_ROW_30_Left_62
*623 PHY_EDGE_ROW_30_Right_30
*624 PHY_EDGE_ROW_31_Left_63
*625 PHY_EDGE_ROW_31_Right_31
*626 PHY_EDGE_ROW_3_Left_35
*627 PHY_EDGE_ROW_3_Right_3
*628 PHY_EDGE_ROW_4_Left_36
*629 PHY_EDGE_ROW_4_Right_4
*630 PHY_EDGE_ROW_5_Left_37
*631 PHY_EDGE_ROW_5_Right_5
*632 PHY_EDGE_ROW_6_Left_38
*633 PHY_EDGE_ROW_6_Right_6
*634 PHY_EDGE_ROW_7_Left_39
*635 PHY_EDGE_ROW_7_Right_7
*636 PHY_EDGE_ROW_8_Left_40
*637 PHY_EDGE_ROW_8_Right_8
*638 PHY_EDGE_ROW_9_Left_41
*639 PHY_EDGE_ROW_9_Right_9
*640 TAP_TAPCELL_ROW_0_64
*641 TAP_TAPCELL_ROW_0_65
*642 TAP_TAPCELL_ROW_0_66
*643 TAP_TAPCELL_ROW_0_67
*644 TAP_TAPCELL_ROW_10_86
*645 TAP_TAPCELL_ROW_10_87
*646 TAP_TAPCELL_ROW_11_88
*647 TAP_TAPCELL_ROW_11_89
*648 TAP_TAPCELL_ROW_12_90
*649 TAP_TAPCELL_ROW_12_91
*650 TAP_TAPCELL_ROW_13_92
*651 TAP_TAPCELL_ROW_13_93
*652 TAP_TAPCELL_ROW_14_94
*653 TAP_TAPCELL_ROW_14_95
*654 TAP_TAPCELL_ROW_15_96
*655 TAP_TAPCELL_ROW_15_97
*656 TAP_TAPCELL_ROW_16_98
*657 TAP_TAPCELL_ROW_16_99
*658 TAP_TAPCELL_ROW_17_100
*659 TAP_TAPCELL_ROW_17_101
*660 TAP_TAPCELL_ROW_18_102
*661 TAP_TAPCELL_ROW_18_103
*662 TAP_TAPCELL_ROW_19_104
*663 TAP_TAPCELL_ROW_19_105
*664 TAP_TAPCELL_ROW_1_68
*665 TAP_TAPCELL_ROW_1_69
*666 TAP_TAPCELL_ROW_20_106
*667 TAP_TAPCELL_ROW_20_107
*668 TAP_TAPCELL_ROW_21_108
*669 TAP_TAPCELL_ROW_21_109
*670 TAP_TAPCELL_ROW_22_110
*671 TAP_TAPCELL_ROW_22_111
*672 TAP_TAPCELL_ROW_23_112
*673 TAP_TAPCELL_ROW_23_113
*674 TAP_TAPCELL_ROW_24_114
*675 TAP_TAPCELL_ROW_24_115
*676 TAP_TAPCELL_ROW_25_116
*677 TAP_TAPCELL_ROW_25_117
*678 TAP_TAPCELL_ROW_26_118
*679 TAP_TAPCELL_ROW_26_119
*680 TAP_TAPCELL_ROW_27_120
*681 TAP_TAPCELL_ROW_27_121
*682 TAP_TAPCELL_ROW_28_122
*683 TAP_TAPCELL_ROW_28_123
*684 TAP_TAPCELL_ROW_29_124
*685 TAP_TAPCELL_ROW_29_125
*686 TAP_TAPCELL_ROW_2_70
*687 TAP_TAPCELL_ROW_2_71
*688 TAP_TAPCELL_ROW_30_126
*689 TAP_TAPCELL_ROW_30_127
*690 TAP_TAPCELL_ROW_31_128
*691 TAP_TAPCELL_ROW_31_129
*692 TAP_TAPCELL_ROW_31_130
*693 TAP_TAPCELL_ROW_31_131
*694 TAP_TAPCELL_ROW_3_72
*695 TAP_TAPCELL_ROW_3_73
*696 TAP_TAPCELL_ROW_4_74
*697 TAP_TAPCELL_ROW_4_75
*698 TAP_TAPCELL_ROW_5_76
*699 TAP_TAPCELL_ROW_5_77
*700 TAP_TAPCELL_ROW_6_78
*701 TAP_TAPCELL_ROW_6_79
*702 TAP_TAPCELL_ROW_7_80
*703 TAP_TAPCELL_ROW_7_81
*704 TAP_TAPCELL_ROW_8_82
*705 TAP_TAPCELL_ROW_8_83
*706 TAP_TAPCELL_ROW_9_84
*707 TAP_TAPCELL_ROW_9_85
*708 _164_
*709 _165_
*710 _166_
*711 _167_
*712 _168_
*713 _169_
*714 _170_
*715 _171_
*716 _172_
*717 _173_
*718 _174_
*719 _175_
*720 _176_
*721 _177_
*722 _178_
*723 _179_
*724 _180_
*725 _181_
*726 _182_
*727 _183_
*728 _184_
*729 _185_
*730 _186_
*731 _187_
*732 _188_
*733 _189_
*734 _190_
*735 _191_
*736 _192_
*737 _193_
*738 _194_
*739 _195_
*740 _196_
*741 _197_
*742 _198_
*743 _199_
*744 _200_
*745 _201_
*746 _202_
*747 _203_
*748 _204_
*749 _205_
*750 _206_
*751 _207_
*752 _208_
*753 _209_
*754 _210_
*755 _211_
*756 _212_
*757 _213_
*758 _214_
*759 _215_
*760 _216_
*761 _217_
*762 _218_
*763 _219_
*764 _220_
*765 _221_
*766 _222_
*767 _223_
*768 _224_
*769 _225_
*770 _226_
*771 _227_
*772 _228_
*773 _229_
*774 _230_
*775 _231_
*776 _232_
*777 _233_
*778 _234_
*779 _235_
*780 _236_
*781 _237_
*782 _238_
*783 _239_
*784 _240_
*785 _241_
*786 _242_
*787 _243_
*788 _244_
*789 _245_
*790 _246_
*791 _247_
*792 _248_
*793 _249_
*794 _250_
*795 _251_
*796 _252_
*797 _253_
*798 _254_
*799 _255_
*800 _256_
*801 _257_
*802 _258_
*803 _259_
*804 _260_
*805 _261_
*806 _262_
*807 _263_
*808 _264_
*809 _265_
*810 _266_
*811 _267_
*812 _268_
*813 _269_
*814 _270_
*815 _271_
*816 _272_
*817 _273_
*818 _274_
*819 _275_
*820 _276_
*821 _277_
*822 _278_
*823 _279_
*824 _280_
*825 _281_
*826 _282_
*827 _283_
*828 _284_
*829 _285_
*830 _286_
*831 _287_
*832 _288_
*833 _289_
*834 _290_
*835 _291_
*836 _292_
*837 _293_
*838 _294_
*839 _295_
*840 _296_
*841 _297_
*842 _298_
*843 _299_
*844 _300_
*845 _301_
*846 _302_
*847 _303_
*848 _304_
*849 _305_
*850 _306_
*851 _307_
*852 _308_
*853 _309_
*854 _310_
*855 _311_
*856 _312_
*857 _313_
*858 _314_
*859 _315_
*860 _316_
*861 _317_
*862 _318_
*863 _319_
*864 _320_
*865 _321_
*866 _322_
*867 _323_
*868 _324_
*869 _325_
*870 _326_
*871 _327_
*872 _328_
*873 _329_
*874 _330_
*875 _331_
*876 _332_
*877 _333_
*878 _334_
*879 _335_
*880 _336_
*881 _337_
*882 _338_
*883 _339_
*884 _340_
*885 _341_
*886 _342_
*887 _343_
*888 _344_
*889 _345_
*890 _346_
*891 _347_
*892 _348_
*893 _349_
*894 _350_
*895 _351_
*896 _352_
*897 _353_
*898 _354_
*899 _355_
*900 _356_
*901 _357_
*902 clkbuf_0_clk
*903 clkbuf_2_0__f_clk
*904 clkbuf_2_1__f_clk
*905 clkbuf_2_2__f_clk
*906 clkbuf_2_3__f_clk
*907 clkload0
*908 clkload1
*909 clkload2
*910 output1
*911 output2
*912 output3

*PORTS
clk I
count[0] O
count[1] O
count[2] O
reset I

*D_NET *3 0.0110453
*CONN
*P clk I
*I *902:A I *D sky130_fd_sc_hd__clkbuf_16
*CAP
1 clk 0.00348754
2 *902:A 0.00348754
3 *902:A *763:A 0
4 *902:A *836:A2 0.000178868
5 *902:A *885:RESET_B 9.28064e-05
6 *902:A *891:CLK 0
7 *902:A *15:14 6.25615e-05
8 *902:A *23:24 0
9 *902:A *37:14 0.000331176
10 *902:A *40:38 2.7305e-05
11 *902:A *42:16 0.000210991
12 *902:A *49:30 0
13 *902:A *76:24 0.00115123
14 *902:A *89:32 6.04613e-05
15 *902:A *102:71 0.000125685
16 *902:A *104:26 0.000164363
17 *902:A *128:10 0.000116155
18 *902:A *137:69 4.90575e-05
19 *902:A *138:24 0
20 *902:A *141:32 0.000103663
21 *902:A *152:26 0.000545618
22 *902:A *153:34 0.000374246
23 *902:A *165:60 0.000145959
24 *902:A *193:42 0.000239152
25 *902:A *202:49 9.09539e-05
*RES
1 clk *902:A 37.0579 
*END

*D_NET *4 0.000920754
*CONN
*P count[0] O
*I *910:X O *D sky130_fd_sc_hd__buf_1
*CAP
1 count[0] 0.000460377
2 *910:X 0.000460377
3 count[0] *34:22 0
*RES
1 *910:X count[0] 19.3371 
*END

*D_NET *5 0.000860447
*CONN
*P count[1] O
*I *911:X O *D sky130_fd_sc_hd__buf_1
*CAP
1 count[1] 0.000299367
2 *911:X 0.000299367
3 count[1] *34:16 0.000116612
4 count[1] *116:63 0.000145102
*RES
1 *911:X count[1] 21.1554 
*END

*D_NET *6 0.000843879
*CONN
*P count[2] O
*I *912:X O *D sky130_fd_sc_hd__buf_1
*CAP
1 count[2] 0.000421939
2 *912:X 0.000421939
3 count[2] *116:39 0
4 count[2] *206:25 0
*RES
1 *912:X count[2] 19.3371 
*END

*D_NET *7 0.0244363
*CONN
*P reset I
*I *850:A I *D sky130_fd_sc_hd__buf_4
*I *839:A I *D sky130_fd_sc_hd__buf_4
*I *861:A I *D sky130_fd_sc_hd__buf_4
*CAP
1 reset 0.00145449
2 *850:A 2.74395e-05
3 *839:A 0
4 *861:A 4.91021e-05
5 *7:70 0.00151751
6 *7:64 0.00257516
7 *7:44 0.00233478
8 *7:17 0.00275328
9 *850:A *95:63 8.49755e-06
10 *850:A *175:17 1.03483e-05
11 *850:A *175:43 7.69776e-06
12 *861:A *726:B 0.000109184
13 *861:A *163:145 0.000109184
14 *7:17 *729:A 0.000187489
15 *7:17 *734:B1 0.000838487
16 *7:17 *766:B 0.000176804
17 *7:17 *890:RESET_B 0.000297174
18 *7:17 *14:18 0.0003233
19 *7:17 *59:24 5.65427e-05
20 *7:17 *97:12 0.00114067
21 *7:17 *123:12 0.000457708
22 *7:17 *168:18 8.68389e-05
23 *7:17 *195:14 0
24 *7:44 *734:B1 0.000537205
25 *7:44 *786:A1 0.000703245
26 *7:44 *890:RESET_B 1.12406e-05
27 *7:44 *14:18 4.65519e-05
28 *7:44 *49:30 0.000214546
29 *7:44 *118:26 8.01572e-05
30 *7:44 *132:28 1.52797e-05
31 *7:64 *732:B 4.13595e-05
32 *7:64 *786:A1 0.000111635
33 *7:64 *855:A 4.82031e-05
34 *7:64 *40:38 0.000186531
35 *7:64 *64:46 0.000243893
36 *7:64 *67:22 9.31016e-05
37 *7:64 *81:22 9.60939e-05
38 *7:64 *84:14 0.000760629
39 *7:64 *84:76 0.000301016
40 *7:64 *95:63 8.79856e-06
41 *7:64 *110:48 8.75702e-05
42 *7:64 *161:137 0.000160452
43 *7:64 *162:10 0.000106529
44 *7:64 *175:43 1.61405e-05
45 *7:64 *177:97 0.00121943
46 *7:70 *765:A 0.000226146
47 *7:70 *779:B 0.000309898
48 *7:70 *784:A 0.000146162
49 *7:70 *815:C 0.0006356
50 *7:70 *901:CLK 0.000148707
51 *7:70 *911:A 0.00035385
52 *7:70 *124:22 0.000116155
53 *7:70 *161:8 0.000358955
54 *7:70 *161:19 0.000299025
55 *7:70 *163:64 0.000908069
56 *7:70 *163:78 0.000325115
57 *7:70 *178:10 0.000205986
58 *7:70 *190:25 8.55087e-05
59 *7:70 *198:55 0.000705811
*RES
1 reset *7:17 24.027 
2 *7:17 *861:A 18.7011 
3 *7:17 *7:44 13.2317 
4 *7:44 *7:64 43.2589 
5 *7:64 *7:70 49.9107 
6 *7:70 *839:A 9.3 
7 *7:44 *850:A 14.3804 
*END

*D_NET *8 0.0141257
*CONN
*I *875:D I *D sky130_fd_sc_hd__dfrtp_4
*I *820:X O *D sky130_fd_sc_hd__clkbuf_1
*CAP
1 *875:D 0
2 *820:X 0.00172449
3 *8:48 0.00183703
4 *8:18 0.00356152
5 *8:18 *726:B 0.000249715
6 *8:18 *776:A 0.000359824
7 *8:18 *794:B 0.000203066
8 *8:18 *36:16 4.2921e-05
9 *8:18 *76:24 4.46689e-05
10 *8:18 *108:8 5.26224e-05
11 *8:18 *108:22 0.000213934
12 *8:18 *122:27 0.000425431
13 *8:18 *133:12 0.0011685
14 *8:18 *160:12 7.74135e-05
15 *8:18 *162:26 0.000178503
16 *8:18 *162:85 0.000139344
17 *8:18 *182:37 4.29471e-05
18 *8:48 *746:A 0.000278382
19 *8:48 *750:A1 7.78396e-05
20 *8:48 *770:B 0.000537436
21 *8:48 *771:A2 4.96113e-05
22 *8:48 *786:A2 4.58919e-05
23 *8:48 *803:C 0
24 *8:48 *835:A 0.000383673
25 *8:48 *898:RESET_B 0.00010663
26 *8:48 *14:18 0.000153774
27 *8:48 *29:38 0.000738192
28 *8:48 *70:25 0.000135028
29 *8:48 *90:30 1.21258e-05
30 *8:48 *90:60 0.000136949
31 *8:48 *132:28 0.000291719
32 *8:48 *135:22 4.88232e-05
33 *8:48 *161:164 0.000180356
34 *8:48 *166:107 0.000407982
35 *8:48 *175:71 0
36 *8:48 *175:101 2.64128e-05
37 *8:48 *195:60 2.7616e-05
38 *8:48 *201:43 0.000151687
39 *8:48 *205:24 1.36734e-05
*RES
1 *820:X *8:18 47.3 
2 *8:18 *8:48 49.7825 
3 *8:48 *875:D 9.3 
*END

*D_NET *9 0.000823446
*CONN
*I *885:D I *D sky130_fd_sc_hd__dfrtp_2
*I *756:X O *D sky130_fd_sc_hd__clkbuf_1
*CAP
1 *885:D 0.000274097
2 *756:X 0.000274097
3 *885:D *900:D 0
4 *885:D *24:16 5.54976e-05
5 *885:D *57:10 0.000164524
6 *885:D *84:124 5.52302e-05
*RES
1 *756:X *885:D 32.8143 
*END

*D_NET *10 0.0067436
*CONN
*I *886:D I *D sky130_fd_sc_hd__dfrtp_1
*I *761:X O *D sky130_fd_sc_hd__clkbuf_1
*CAP
1 *886:D 0.000711174
2 *761:X 0.00112178
3 *10:20 0.00183296
4 *886:D *768:B 4.90142e-05
5 *886:D *793:B 0.00018777
6 *886:D *827:A 0.000268514
7 *886:D *845:A 0
8 *886:D *886:CLK 3.7808e-06
9 *886:D *886:RESET_B 5.09396e-05
10 *886:D *40:38 2.04825e-05
11 *886:D *108:37 0.000560814
12 *886:D *153:34 5.44275e-05
13 *10:20 *741:A_N 2.22999e-05
14 *10:20 *741:C 0.000223769
15 *10:20 *777:A 0.000113409
16 *10:20 *777:B 1.98839e-05
17 *10:20 *777:C 5.49995e-05
18 *10:20 *781:A 6.28248e-05
19 *10:20 *783:B 0.000139146
20 *10:20 *783:C 3.521e-05
21 *10:20 *807:A_N 0.000396641
22 *10:20 *845:A 0.000122101
23 *10:20 *885:CLK 2.79421e-05
24 *10:20 *899:RESET_B 5.26625e-05
25 *10:20 *900:CLK 1.05731e-05
26 *10:20 *57:10 0.000140516
27 *10:20 *84:149 1.2634e-05
28 *10:20 *121:30 0.000264533
29 *10:20 *139:20 0.000182799
*RES
1 *761:X *10:20 43.2107 
2 *10:20 *886:D 27.1437 
*END

*D_NET *11 0.00277822
*CONN
*I *887:D I *D sky130_fd_sc_hd__dfrtp_4
*I *765:X O *D sky130_fd_sc_hd__clkbuf_1
*CAP
1 *887:D 0.000646967
2 *765:X 0.000646967
3 *887:D *748:A 3.93089e-05
4 *887:D *765:A 0.00048343
5 *887:D *68:26 0.000288924
6 *887:D *77:10 0.000505855
7 *887:D *196:22 7.88303e-05
8 *887:D *197:10 8.79415e-05
*RES
1 *765:X *887:D 41.1714 
*END

*D_NET *12 0.0108251
*CONN
*I *888:D I *D sky130_fd_sc_hd__dfrtp_1
*I *769:X O *D sky130_fd_sc_hd__buf_1
*CAP
1 *888:D 0.000242473
2 *769:X 4.91556e-05
3 *12:10 0.00151395
4 *12:8 0.00132063
5 *888:D *888:CLK 7.91356e-05
6 *888:D *90:153 0.000205659
7 *888:D *166:71 0.000174418
8 *12:8 *769:A 1.58163e-05
9 *12:10 *724:A2 7.25296e-05
10 *12:10 *775:B 0.000292999
11 *12:10 *860:A 0.00017309
12 *12:10 *862:A 0
13 *12:10 *877:D 0.000361018
14 *12:10 *880:RESET_B 0.00112567
15 *12:10 *912:A 5.93354e-05
16 *12:10 *33:20 2.22156e-05
17 *12:10 *42:16 0.000267845
18 *12:10 *54:12 0.000912085
19 *12:10 *56:22 0.000584454
20 *12:10 *90:153 4.33438e-05
21 *12:10 *90:168 0.000228188
22 *12:10 *120:14 0
23 *12:10 *143:28 0.000628209
24 *12:10 *163:64 0.000840451
25 *12:10 *179:32 7.29619e-05
26 *12:10 *188:60 1.89564e-05
27 *12:10 *188:75 6.6403e-05
28 *12:10 *200:25 0.00145416
*RES
1 *769:X *12:8 14.3357 
2 *12:8 *12:10 50.5179 
3 *12:10 *888:D 19.8179 
*END

*D_NET *13 0.0128835
*CONN
*I *889:D I *D sky130_fd_sc_hd__dfrtp_2
*I *771:X O *D sky130_fd_sc_hd__o211a_1
*CAP
1 *889:D 0.000211405
2 *771:X 0.00308602
3 *13:22 0.00329743
4 *889:D *853:A 9.67754e-05
5 *889:D *889:CLK 8.81837e-05
6 *889:D *900:RESET_B 0.000180145
7 *889:D *185:12 3.48497e-05
8 *13:22 *791:A_N 0.000456217
9 *13:22 *818:A2 0.000169649
10 *13:22 *823:C 0.00122175
11 *13:22 *848:A 5.62306e-05
12 *13:22 *873:RESET_B 0.000448147
13 *13:22 *890:RESET_B 3.54221e-05
14 *13:22 *894:D 0.000265697
15 *13:22 *29:38 0
16 *13:22 *35:16 0.000114538
17 *13:22 *47:26 2.06112e-05
18 *13:22 *71:14 0.000153891
19 *13:22 *76:24 2.66012e-05
20 *13:22 *77:10 1.11256e-05
21 *13:22 *78:16 0
22 *13:22 *81:22 4.79308e-05
23 *13:22 *89:32 8.96104e-05
24 *13:22 *117:14 0.00014192
25 *13:22 *118:26 0.000239457
26 *13:22 *127:26 9.68006e-05
27 *13:22 *132:28 8.94491e-05
28 *13:22 *161:42 2.16482e-05
29 *13:22 *162:85 4.72098e-05
30 *13:22 *162:87 3.10819e-05
31 *13:22 *163:16 0.00115439
32 *13:22 *181:45 9.02991e-05
33 *13:22 *182:69 7.70005e-05
34 *13:22 *183:66 0.00012502
35 *13:22 *185:57 9.35583e-05
36 *13:22 *186:24 0.000279422
37 *13:22 *199:14 0.000175707
38 *13:22 *201:43 0.00010835
*RES
1 *771:X *13:22 48.5398 
2 *13:22 *889:D 18.0321 
*END

*D_NET *14 0.00766311
*CONN
*I *890:D I *D sky130_fd_sc_hd__dfrtp_1
*I *776:X O *D sky130_fd_sc_hd__clkbuf_1
*CAP
1 *890:D 4.75843e-05
2 *776:X 0.00145114
3 *14:18 0.00149873
4 *890:D *733:B 0.00013921
5 *890:D *766:A 2.79201e-05
6 *890:D *895:CLK 6.05161e-06
7 *14:18 *720:B 9.03273e-05
8 *14:18 *734:B1 0.000865594
9 *14:18 *776:A 0.000129332
10 *14:18 *845:A 0.000160771
11 *14:18 *872:D 0.00017802
12 *14:18 *890:RESET_B 0.000133536
13 *14:18 *29:38 0.000479478
14 *14:18 *71:14 2.06178e-05
15 *14:18 *108:22 0.000197762
16 *14:18 *133:12 0
17 *14:18 *161:79 0.000150083
18 *14:18 *166:42 0.000816502
19 *14:18 *170:12 1.94945e-05
20 *14:18 *182:37 4.19281e-05
21 *14:18 *201:43 0.00046778
22 *14:18 *204:50 0.00021763
23 *7:17 *14:18 0.0003233
24 *7:44 *14:18 4.65519e-05
25 *8:48 *14:18 0.000153774
*RES
1 *776:X *14:18 48.3226 
2 *14:18 *890:D 15.1571 
*END

*D_NET *15 0.00609117
*CONN
*I *891:D I *D sky130_fd_sc_hd__dfrtp_1
*I *780:X O *D sky130_fd_sc_hd__clkbuf_1
*CAP
1 *891:D 0
2 *780:X 0.000980739
3 *15:14 0.000980739
4 *15:14 *757:B 0.000249017
5 *15:14 *780:A 0.000686876
6 *15:14 *799:B 0.000929809
7 *15:14 *825:A 7.95417e-05
8 *15:14 *836:A2 9.94178e-05
9 *15:14 *881:RESET_B 8.6229e-06
10 *15:14 *891:CLK 0
11 *15:14 *76:42 1.98839e-05
12 *15:14 *101:12 3.50327e-05
13 *15:14 *165:60 0.000534137
14 *15:14 *181:28 0.000129913
15 *15:14 *182:39 0.000931642
16 *15:14 *185:57 0.000349458
17 *15:14 *186:46 1.37767e-05
18 *902:A *15:14 6.25615e-05
*RES
1 *780:X *15:14 45.8714 
2 *15:14 *891:D 9.3 
*END

*D_NET *16 0.00066022
*CONN
*I *892:D I *D sky130_fd_sc_hd__dfrtp_2
*I *784:X O *D sky130_fd_sc_hd__clkbuf_1
*CAP
1 *892:D 0.000160471
2 *784:X 0.000160471
3 *892:D *843:A 9.41642e-05
4 *892:D *892:RESET_B 9.54879e-05
5 *892:D *907:A 0.000139202
6 *892:D *55:16 1.04232e-05
*RES
1 *784:X *892:D 22.0286 
*END

*D_NET *17 0.00784035
*CONN
*I *893:D I *D sky130_fd_sc_hd__dfrtp_1
*I *788:X O *D sky130_fd_sc_hd__clkbuf_1
*CAP
1 *893:D 0.000566731
2 *788:X 0.00154493
3 *17:16 0.00211167
4 *893:D *746:A 2.51508e-05
5 *893:D *750:A2 6.19639e-06
6 *893:D *750:A3 0.000284086
7 *893:D *809:A 0.000180016
8 *893:D *893:CLK 1.29901e-05
9 *893:D *29:16 6.05161e-06
10 *893:D *137:28 4.64488e-06
11 *893:D *170:12 0
12 *893:D *196:58 0.000466883
13 *893:D *196:69 0.000111982
14 *17:16 *742:A 2.42516e-05
15 *17:16 *762:B 0.000853321
16 *17:16 *803:A_N 4.60232e-06
17 *17:16 *846:A 2.51343e-06
18 *17:16 *873:CLK 0.00016968
19 *17:16 *873:D 5.74499e-06
20 *17:16 *23:24 4.3191e-05
21 *17:16 *64:22 0.000811579
22 *17:16 *64:46 0.000151416
23 *17:16 *68:46 1.98839e-05
24 *17:16 *195:60 0.000432834
*RES
1 *788:X *17:16 47.8893 
2 *17:16 *893:D 26.2643 
*END

*D_NET *18 0.0212089
*CONN
*I *894:D I *D sky130_fd_sc_hd__dfrtp_4
*I *792:X O *D sky130_fd_sc_hd__buf_1
*CAP
1 *894:D 0.0038472
2 *792:X 0.00157916
3 *18:16 0.00542637
4 *894:D *760:B 0.00011173
5 *894:D *791:A_N 1.94879e-05
6 *894:D *815:C 0.000488233
7 *894:D *818:A2 7.27952e-05
8 *894:D *894:CLK 3.02723e-05
9 *894:D *898:RESET_B 0.000261688
10 *894:D *32:12 5.00841e-06
11 *894:D *47:26 0.00132687
12 *894:D *68:26 0.000124573
13 *894:D *78:16 5.99199e-06
14 *894:D *89:32 0.000697474
15 *894:D *98:18 0.000117161
16 *894:D *104:26 2.06178e-05
17 *894:D *113:24 0.00013725
18 *894:D *116:39 3.60937e-05
19 *894:D *148:22 0.000141621
20 *894:D *161:8 0.000158074
21 *894:D *163:16 0.000177086
22 *894:D *170:12 0.000321402
23 *894:D *170:36 0.0020954
24 *894:D *197:10 0.00010283
25 *18:16 *714:B 0.000103029
26 *18:16 *720:B 6.47308e-05
27 *18:16 *751:A_N 0.000111592
28 *18:16 *751:C 0
29 *18:16 *786:A1 0.000218775
30 *18:16 *792:A 0.000151061
31 *18:16 *809:A 1.24368e-05
32 *18:16 *809:B 0.000104477
33 *18:16 *811:B 0.000691744
34 *18:16 *876:RESET_B 0.000512517
35 *18:16 *32:12 0.000860862
36 *18:16 *92:22 1.8729e-05
37 *18:16 *102:109 0.000130196
38 *18:16 *137:20 0.000511338
39 *18:16 *141:32 4.4528e-05
40 *18:16 *170:12 3.72928e-05
41 *18:16 *175:29 6.55147e-05
42 *13:22 *894:D 0.000265697
*RES
1 *792:X *18:16 49.9696 
2 *18:16 *894:D 44.0527 
*END

*D_NET *19 0.00837156
*CONN
*I *876:D I *D sky130_fd_sc_hd__dfrtp_4
*I *824:X O *D sky130_fd_sc_hd__clkbuf_1
*CAP
1 *876:D 0.00110856
2 *824:X 0.000661707
3 *19:16 0.00177026
4 *876:D *746:A 7.40976e-05
5 *876:D *746:C 4.47199e-05
6 *876:D *805:B 0.00010449
7 *876:D *805:C 0.000507182
8 *876:D *805:D 0.000334144
9 *876:D *834:A 0.000561522
10 *876:D *835:A 0.000185408
11 *876:D *854:A 0.000959516
12 *876:D *876:CLK 7.88091e-05
13 *876:D *93:6 0.000140588
14 *876:D *162:140 4.70806e-05
15 *876:D *195:14 0.000262987
16 *19:16 *718:C 9.12284e-05
17 *19:16 *718:D 0
18 *19:16 *824:A 3.42509e-05
19 *19:16 *834:A 0.000132054
20 *19:16 *158:22 0
21 *19:16 *162:140 2.50976e-05
22 *19:16 *166:36 0.000121078
23 *19:16 *166:86 0.000294267
24 *19:16 *166:107 0
25 *19:16 *180:77 7.70035e-05
26 *19:16 *192:22 0.000627353
27 *19:16 *192:34 0.000128154
*RES
1 *824:X *19:16 30.7911 
2 *19:16 *876:D 47.2911 
*END

*D_NET *20 0.00879174
*CONN
*I *895:D I *D sky130_fd_sc_hd__dfrtp_1
*I *796:X O *D sky130_fd_sc_hd__clkbuf_1
*CAP
1 *895:D 0.000339224