*SPEF "ieee 1481-1999"
*DESIGN "my_first_design"
*DATE "18:45:01 Sunday April 27, 2025"
*VENDOR "The OpenROAD Project"
*PROGRAM "OpenROAD"
*VERSION "b16bda7e82721d10566ff7e2b68f1ff0be9f9e38"
*DESIGN_FLOW "NAME_SCOPE LOCAL" "PIN_CAP NONE"
*DIVIDER /
*DELIMITER :
*BUS_DELIMITER []
*T_UNIT 1 NS
*C_UNIT 1 PF
*R_UNIT 1 OHM
*L_UNIT 1 HENRY

*NAME_MAP
*3 in[0]
*4 in[1]
*5 in[2]
*6 in[3]
*7 in[4]
*8 in[5]
*9 in[6]
*10 in[7]
*11 out[0]
*12 out[1]
*13 out[2]
*14 out[3]
*15 out[4]
*16 out[5]
*17 out[6]
*18 out[7]
*19 _00_
*20 _01_
*21 _02_
*22 _03_
*23 _04_
*24 _05_
*25 _06_
*26 _07_
*27 _08_
*28 net1
*29 net10
*30 net11
*31 net12
*32 net13
*33 net14
*34 net15
*35 net16
*36 net2
*37 net3
*38 net4
*39 net5
*40 net6
*41 net7
*42 net8
*43 net9
*44 FILLER_0_0_21
*45 FILLER_0_0_27
*46 FILLER_0_0_29
*47 FILLER_0_0_41
*48 FILLER_0_0_53
*49 FILLER_0_0_57
*50 FILLER_0_0_69
*51 FILLER_0_0_9
*52 FILLER_0_1_11
*53 FILLER_0_1_17
*54 FILLER_0_1_29
*55 FILLER_0_1_3
*56 FILLER_0_1_37
*57 FILLER_0_1_43
*58 FILLER_0_1_55
*59 FILLER_0_1_57
*60 FILLER_0_1_69
*61 FILLER_0_2_18
*62 FILLER_0_2_26
*63 FILLER_0_2_29
*64 FILLER_0_2_41
*65 FILLER_0_2_49
*66 FILLER_0_2_6
*67 FILLER_0_2_60
*68 FILLER_0_2_72
*69 FILLER_0_2_76
*70 FILLER_0_3_15
*71 FILLER_0_3_27
*72 FILLER_0_3_3
*73 FILLER_0_3_39
*74 FILLER_0_3_51
*75 FILLER_0_3_55
*76 FILLER_0_3_57
*77 FILLER_0_3_69
*78 FILLER_0_3_7
*79 FILLER_0_4_18
*80 FILLER_0_4_26
*81 FILLER_0_4_36
*82 FILLER_0_4_48
*83 FILLER_0_4_6
*84 FILLER_0_4_60
*85 FILLER_0_4_72
*86 FILLER_0_4_76
*87 FILLER_0_5_11
*88 FILLER_0_5_20
*89 FILLER_0_5_3
*90 FILLER_0_5_32
*91 FILLER_0_5_44
*92 FILLER_0_5_57
*93 FILLER_0_5_61
*94 FILLER_0_5_73
*95 FILLER_0_6_15
*96 FILLER_0_6_27
*97 FILLER_0_6_29
*98 FILLER_0_6_41
*99 FILLER_0_6_52
*100 FILLER_0_6_6
*101 FILLER_0_6_64
*102 FILLER_0_6_74
*103 FILLER_0_7_14
*104 FILLER_0_7_26
*105 FILLER_0_7_3
*106 FILLER_0_7_38
*107 FILLER_0_7_50
*108 FILLER_0_7_57
*109 FILLER_0_7_64
*110 FILLER_0_7_76
*111 FILLER_0_7_80
*112 FILLER_0_8_13
*113 FILLER_0_8_25
*114 FILLER_0_8_29
*115 FILLER_0_8_41
*116 FILLER_0_8_53
*117 FILLER_0_8_59
*118 FILLER_0_8_65
*119 FILLER_0_8_69
*120 FILLER_0_9_13
*121 FILLER_0_9_25
*122 FILLER_0_9_36
*123 FILLER_0_9_48
*124 FILLER_0_9_57
*125 FILLER_0_9_69
*126 PHY_EDGE_ROW_0_Left_10
*127 PHY_EDGE_ROW_0_Right_0
*128 PHY_EDGE_ROW_1_Left_11
*129 PHY_EDGE_ROW_1_Right_1
*130 PHY_EDGE_ROW_2_Left_12
*131 PHY_EDGE_ROW_2_Right_2
*132 PHY_EDGE_ROW_3_Left_13
*133 PHY_EDGE_ROW_3_Right_3
*134 PHY_EDGE_ROW_4_Left_14
*135 PHY_EDGE_ROW_4_Right_4
*136 PHY_EDGE_ROW_5_Left_15
*137 PHY_EDGE_ROW_5_Right_5
*138 PHY_EDGE_ROW_6_Left_16
*139 PHY_EDGE_ROW_6_Right_6
*140 PHY_EDGE_ROW_7_Left_17
*141 PHY_EDGE_ROW_7_Right_7
*142 PHY_EDGE_ROW_8_Left_18
*143 PHY_EDGE_ROW_8_Right_8
*144 PHY_EDGE_ROW_9_Left_19
*145 PHY_EDGE_ROW_9_Right_9
*146 TAP_TAPCELL_ROW_0_20
*147 TAP_TAPCELL_ROW_0_21
*148 TAP_TAPCELL_ROW_1_22
*149 TAP_TAPCELL_ROW_2_23
*150 TAP_TAPCELL_ROW_3_24
*151 TAP_TAPCELL_ROW_4_25
*152 TAP_TAPCELL_ROW_5_26
*153 TAP_TAPCELL_ROW_6_27
*154 TAP_TAPCELL_ROW_7_28
*155 TAP_TAPCELL_ROW_8_29
*156 TAP_TAPCELL_ROW_9_30
*157 TAP_TAPCELL_ROW_9_31
*158 _09_
*159 _10_
*160 _11_
*161 _12_
*162 _13_
*163 _14_
*164 _15_
*165 _16_
*166 _17_
*167 _18_
*168 _19_
*169 _20_
*170 _21_
*171 _22_
*172 _23_
*173 _24_
*174 _25_
*175 input1
*176 input2
*177 input3
*178 input4
*179 input5
*180 input6
*181 input7
*182 input8
*183 output10
*184 output11
*185 output12
*186 output13
*187 output14
*188 output15
*189 output16
*190 output9

*PORTS
in[0] I
in[1] I
in[2] I
in[3] I
in[4] I
in[5] I
in[6] I
in[7] I
out[0] O
out[1] O
out[2] O
out[3] O
out[4] O
out[5] O
out[6] O
out[7] O

*D_NET *3 0.00151303
*CONN
*P in[0] I
*I *175:A I *D sky130_fd_sc_hd__clkbuf_2
*CAP
1 in[0] 0.000654243
2 *175:A 0.000654243
3 *175:A *176:A 0
4 *175:A *36:14 0.00020455
*RES
1 in[0] *175:A 26.9985 
*END

*D_NET *4 0.000640983
*CONN
*P in[1] I
*I *176:A I *D sky130_fd_sc_hd__dlymetal6s2s_1
*CAP
1 in[1] 0.000320491
2 *176:A 0.000320491
3 *176:A *177:A 0
4 *175:A *176:A 0
*RES
1 in[1] *176:A 21.0874 
*END

*D_NET *5 0.00085865
*CONN
*P in[2] I
*I *177:A I *D sky130_fd_sc_hd__buf_1
*CAP
1 in[2] 0.000385873
2 *177:A 0.000385873
3 *177:A *178:A 0
4 *177:A *28:14 5.33005e-05
5 *177:A *34:20 3.36025e-05
6 *177:A *36:14 0
7 *176:A *177:A 0
*RES
1 in[2] *177:A 22.3161 
*END

*D_NET *6 0.000517453
*CONN
*P in[3] I
*I *178:A I *D sky130_fd_sc_hd__clkbuf_1
*CAP
1 in[3] 0.000240248
2 *178:A 0.000240248
3 *178:A *179:A 0
4 *178:A *36:14 3.69573e-05
5 *177:A *178:A 0
*RES
1 in[3] *178:A 18.73 
*END

*D_NET *7 0.000563768
*CONN
*P in[4] I
*I *179:A I *D sky130_fd_sc_hd__buf_1
*CAP
1 in[4] 0.000281884
2 *179:A 0.000281884
3 *179:A *180:A 0
4 *178:A *179:A 0
*RES
1 in[4] *179:A 20.4803 
*END

*D_NET *8 0.000555558
*CONN
*P in[5] I
*I *180:A I *D sky130_fd_sc_hd__buf_1
*CAP
1 in[5] 0.000277779
2 *180:A 0.000277779
3 *180:A *181:A 0
4 *179:A *180:A 0
*RES
1 in[5] *180:A 20.4803 
*END

*D_NET *9 0.000563768
*CONN
*P in[6] I
*I *181:A I *D sky130_fd_sc_hd__clkbuf_1
*CAP
1 in[6] 0.000281884
2 *181:A 0.000281884
3 *181:A *182:A 0
4 *180:A *181:A 0
*RES
1 in[6] *181:A 20.4803 
*END

*D_NET *10 0.00113105
*CONN
*P in[7] I
*I *182:A I *D sky130_fd_sc_hd__buf_1
*CAP
1 in[7] 0.000565523
2 *182:A 0.000565523
3 *181:A *182:A 0
*RES
1 in[7] *182:A 23.8033 
*END

*D_NET *11 0.00123579
*CONN
*P out[0] O
*I *190:X O *D sky130_fd_sc_hd__buf_2
*CAP
1 out[0] 0.000617896
2 *190:X 0.000617896
3 out[0] out[1] 0
*RES
1 *190:X out[0] 23.9475 
*END

*D_NET *12 0.000582685
*CONN
*P out[1] O
*I *183:X O *D sky130_fd_sc_hd__buf_2
*CAP
1 out[1] 0.000291342
2 *183:X 0.000291342
3 out[1] out[2] 0
4 out[0] out[1] 0
*RES
1 *183:X out[1] 18.8021 
*END

*D_NET *13 0.000495661
*CONN
*P out[2] O
*I *184:X O *D sky130_fd_sc_hd__buf_2
*CAP
1 out[2] 0.000241733
2 *184:X 0.000241733
3 out[2] out[3] 0
4 out[2] *183:A 1.21955e-05
5 out[1] out[2] 0
*RES
1 *184:X out[2] 18.1949 
*END

*D_NET *14 0.00079273
*CONN
*P out[3] O
*I *185:X O *D sky130_fd_sc_hd__buf_2
*CAP
1 out[3] 0.000387712
2 *185:X 0.000387712
3 out[3] out[4] 0
4 out[3] *185:A 6.05161e-06
5 out[3] *43:10 1.12545e-05
6 out[2] out[3] 0
*RES
1 *185:X out[3] 19.2855 
*END

*D_NET *15 0.000504404
*CONN
*P out[4] O
*I *186:X O *D sky130_fd_sc_hd__buf_2
*CAP
1 out[4] 0.000252202
2 *186:X 0.000252202
3 out[4] out[5] 0
4 out[3] out[4] 0
*RES
1 *186:X out[4] 18.1949 
*END

*D_NET *16 0.000510383
*CONN
*P out[5] O
*I *187:X O *D sky130_fd_sc_hd__buf_2
*CAP
1 out[5] 0.000255192
2 *187:X 0.000255192
3 out[5] out[6] 0
4 out[4] out[5] 0
*RES
1 *187:X out[5] 18.1949 
*END

*D_NET *17 0.000479894
*CONN
*P out[6] O
*I *188:X O *D sky130_fd_sc_hd__buf_2
*CAP
1 out[6] 0.000239947
2 *188:X 0.000239947
3 out[6] out[7] 0
4 out[5] out[6] 0
*RES
1 *188:X out[6] 18.1949 
*END

*D_NET *18 0.00115195
*CONN
*P out[7] O
*I *189:X O *D sky130_fd_sc_hd__buf_2
*CAP
1 out[7] 0.000575975
2 *189:X 0.000575975
3 out[6] out[7] 0
*RES
1 *189:X out[7] 23.3403 
*END

*D_NET *19 0.00665447
*CONN
*I *173:B1_N I *D sky130_fd_sc_hd__a21boi_1
*I *164:D I *D sky130_fd_sc_hd__or4_1
*I *160:B I *D sky130_fd_sc_hd__and2_1
*I *159:B I *D sky130_fd_sc_hd__nor2_1
*I *163:A3 I *D sky130_fd_sc_hd__o31a_1
*I *158:X O *D sky130_fd_sc_hd__or4_2
*CAP
1 *173:B1_N 0.000743083
2 *164:D 0
3 *160:B 0.000174088
4 *159:B 0
5 *163:A3 0.000226614
6 *158:X 5.41151e-05
7 *19:33 0.000236527
8 *19:18 0.000289052
9 *19:16 0.000326942
10 *19:8 0.00112414
11 *160:B *160:A 0.000286273
12 *160:B *162:A 1.02504e-05
13 *160:B *21:12 2.84026e-05
14 *163:A3 *162:A 7.05375e-05
15 *163:A3 *163:A1 0.000273983
16 *163:A3 *163:A2 4.74514e-05
17 *163:A3 *37:14 1.59373e-05
18 *163:A3 *39:21 0.000147725
19 *163:A3 *40:21 0.000295144
20 *173:B1_N *167:B 0.000137503
21 *173:B1_N *173:A1 0.000546746
22 *173:B1_N *173:A2 0.000178847
23 *173:B1_N *185:A 5.44797e-05
24 *173:B1_N *21:12 9.15178e-05
25 *173:B1_N *42:12 0.000388153
26 *19:8 *165:B 2.56601e-05
27 *19:8 *167:B 1.97381e-05
28 *19:8 *42:12 0.000128154
29 *19:16 *164:A 0.000129696
30 *19:16 *164:C 5.33005e-05
31 *19:16 *23:8 0.000199426
32 *19:33 *160:A 9.11048e-06
33 *19:33 *162:A 0.00017309
34 *19:33 *39:21 2.27129e-05
35 *19:33 *39:34 0.000146071
*RES
1 *158:X *19:8 15.4429 
2 *19:8 *19:16 11.75 
3 *19:16 *19:18 4.5 
4 *19:18 *163:A3 20.675 
5 *19:18 *19:33 2.25 
6 *19:33 *159:B 13.8 
7 *19:33 *160:B 18.0143 
8 *19:16 *164:D 9.3 
9 *19:8 *173:B1_N 32.4607 
*END

*D_NET *20 0.00438984
*CONN
*I *161:A I *D sky130_fd_sc_hd__nor2_1
*I *162:B I *D sky130_fd_sc_hd__xnor2_1
*I *159:Y O *D sky130_fd_sc_hd__nor2_1
*CAP
1 *161:A 0.00058715
2 *162:B 2.03441e-05
3 *159:Y 0.000681938
4 *20:6 0.00128943
5 *161:A *162:A 2.44318e-05
6 *161:A *168:B 0.000410951
7 *161:A *171:B 0.000337637
8 *161:A *172:A 0.000287849
9 *162:B *168:B 5.7661e-06
10 *20:6 *162:A 0.000736088
11 *20:6 *38:8 8.25843e-06
*RES
1 *159:Y *20:6 22.5679 
2 *20:6 *162:B 9.72857 
3 *20:6 *161:A 31.1393 
*END

*D_NET *21 0.00510442
*CONN
*I *161:B I *D sky130_fd_sc_hd__nor2_1
*I *160:X O *D sky130_fd_sc_hd__and2_1
*CAP
1 *161:B 0
2 *160:X 0.00179173
3 *21:12 0.00179173
4 *21:12 *173:A1 0.00117669
5 *21:12 *184:A 0.000128154
6 *21:12 *185:A 1.91843e-05
7 *21:12 *186:A 7.70035e-05
8 *160:B *21:12 2.84026e-05
9 *173:B1_N *21:12 9.15178e-05
*RES
1 *160:X *21:12 42.6571 
2 *21:12 *161:B 9.3 
*END

*D_NET *22 0.00382241
*CONN
*I *165:A_N I *D sky130_fd_sc_hd__and2b_1
*I *163:X O *D sky130_fd_sc_hd__o31a_1
*CAP
1 *165:A_N 0.00139464
2 *163:X 0.00139464
3 *165:A_N *171:B 7.74068e-05
4 *165:A_N *25:10 0.000126409
5 *165:A_N *37:29 0.000829318
*RES
1 *163:X *165:A_N 46.2071 
*END

*D_NET *23 0.00433574
*CONN
*I *167:B I *D sky130_fd_sc_hd__xor2_1
*I *165:B I *D sky130_fd_sc_hd__and2b_1
*I *164:X O *D sky130_fd_sc_hd__or4_1
*CAP
1 *167:B 0.000626018
2 *165:B 0.000900942
3 *164:X 0.00023672
4 *23:8 0.00176368
5 *165:B *170:B1 0.000426051
6 *165:B *42:12 0
7 *167:B *42:12 0
8 *173:B1_N *167:B 0.000137503
9 *19:8 *165:B 2.56601e-05
10 *19:8 *167:B 1.97381e-05
11 *19:16 *23:8 0.000199426
*RES
1 *164:X *23:8 17.2107 
2 *23:8 *165:B 29.9786 
3 *23:8 *167:B 25.6036 
*END

*D_NET *24 0.00374823
*CONN
*I *166:A I *D sky130_fd_sc_hd__clkbuf_1
*I *165:X O *D sky130_fd_sc_hd__and2b_1
*CAP
1 *166:A 0
2 *165:X 0.00182412
3 *24:12 0.00182412
4 *24:12 *171:A 0
5 *24:12 *25:10 0
6 *24:12 *34:20 9.99853e-05
*RES
1 *165:X *24:12 48.6393 
2 *24:12 *166:A 9.3 
*END

*D_NET *25 0.00600148
*CONN
*I *171:A I *D sky130_fd_sc_hd__and2_1
*I *173:A2 I *D sky130_fd_sc_hd__a21boi_1
*I *169:X O *D sky130_fd_sc_hd__or3_1
*CAP
1 *171:A 0.000104703
2 *173:A2 4.77561e-05
3 *169:X 0.00173629
4 *25:10 0.00188875
5 *171:A *171:B 8.9163e-05
6 *173:A2 *173:A1 0.000178847
7 *25:10 *171:B 0.000446504
8 *25:10 *174:A 0.00026974
9 *25:10 *28:23 0.000791071
10 *25:10 *43:10 0.000143399
11 *165:A_N *25:10 0.000126409
12 *173:B1_N *173:A2 0.000178847
13 *24:12 *171:A 0
14 *24:12 *25:10 0
*RES
1 *169:X *25:10 43.6214 
2 *25:10 *173:A2 15.5679 
3 *25:10 *171:A 16.05 
*END

*D_NET *26 0.00213659
*CONN
*I *171:B I *D sky130_fd_sc_hd__and2_1
*I *170:Y O *D sky130_fd_sc_hd__o21ai_1
*CAP
1 *171:B 0.000432648
2 *170:Y 0.000432648
3 *171:B *168:A 6.89067e-05
4 *171:B *170:A1 0.000122186
5 *171:B *170:A2 1.16543e-05
6 *171:B *170:B1 4.93118e-06
7 *171:B *172:A 0.000112907
8 *161:A *171:B 0.000337637
9 *165:A_N *171:B 7.74068e-05
10 *171:A *171:B 8.9163e-05
11 *25:10 *171:B 0.000446504
*RES
1 *170:Y *171:B 41.9214 
*END

*D_NET *27 0.0010675
*CONN
*I *172:A I *D sky130_fd_sc_hd__clkbuf_1
*I *171:X O *D sky130_fd_sc_hd__and2_1
*CAP
1 *172:A 0.000244758
2 *171:X 0.000244758
3 *172:A *168:A 0.000177227
4 *172:A *186:A 0
5 *161:A *172:A 0.000287849
6 *171:B *172:A 0.000112907
*RES
1 *171:X *172:A 34.1 
*END

*D_NET *28 0.0127033
*CONN
*I *174:A I *D sky130_fd_sc_hd__clkbuf_1
*I *168:B I *D sky130_fd_sc_hd__xor2_1
*I *158:D I *D sky130_fd_sc_hd__or4_2
*I *170:A2 I *D sky130_fd_sc_hd__o21ai_1
*I *169:C I *D sky130_fd_sc_hd__or3_1
*I *175:X O *D sky130_fd_sc_hd__clkbuf_2
*CAP
1 *174:A 0.000114077
2 *168:B 0.000729253
3 *158:D 3.68998e-05
4 *170:A2 0.000490101
5 *169:C 0
6 *175:X 0.000498689
7 *28:40 0.000879465
8 *28:27 0.000661935
9 *28:23 0.000561852
10 *28:14 0.000887941
11 *158:D *36:38 2.59355e-05
12 *168:B *158:A 0.000139767
13 *168:B *158:B 9.71532e-05
14 *168:B *162:A 0.000578035
15 *168:B *168:A 0.000400676
16 *168:B *173:A1 1.76135e-05
17 *168:B *187:A 0.00012173
18 *168:B *35:10 0.000393005
19 *170:A2 *170:B1 0.000968091
20 *28:14 *164:C 0.000365682
21 *28:14 *169:B 9.25406e-05
22 *28:14 *34:20 0.00127212
23 *28:14 *36:14 0.000517216
24 *28:14 *41:8 0.0003891
25 *28:27 *35:10 0.00012249
26 *28:27 *42:12 3.79779e-05
27 *28:40 *158:B 0.000202221
28 *28:40 *170:B1 0.000169095
29 *28:40 *35:10 0.000384944
30 *28:40 *42:12 5.24684e-06
31 *161:A *168:B 0.000410951
32 *162:B *168:B 5.7661e-06
33 *171:B *170:A2 1.16543e-05
34 *177:A *28:14 5.33005e-05
35 *25:10 *174:A 0.00026974
36 *25:10 *28:23 0.000791071
*RES
1 *175:X *28:14 37.6393 
2 *28:14 *169:C 9.3 
3 *28:14 *28:23 9.58929 
4 *28:23 *28:27 6.14286 
5 *28:27 *170:A2 24.2107 
6 *28:27 *28:40 4.98214 
7 *28:40 *158:D 14.3357 
8 *28:40 *168:B 33.7286 
9 *28:23 *174:A 12.3179 
*END

*D_NET *29 0.00120365
*CONN
*I *183:A I *D sky130_fd_sc_hd__buf_2
*I *168:X O *D sky130_fd_sc_hd__xor2_1
*CAP
1 *183:A 0.00042861
2 *168:X 0.00042861
3 *183:A *185:A 6.72779e-05
4 *183:A *43:10 0.000266955
5 out[2] *183:A 1.21955e-05
*RES
1 *168:X *183:A 36.1714 
*END

*D_NET *30 0.00218706
*CONN
*I *184:A I *D sky130_fd_sc_hd__buf_2
*I *172:X O *D sky130_fd_sc_hd__clkbuf_1
*CAP
1 *184:A 0.000864819
2 *172:X 0.000864819
3 *184:A *185:A 0.000151333
4 *184:A *186:A 0.000177937
5 *184:A *43:10 0
6 *21:12 *184:A 0.000128154
*RES
1 *172:X *184:A 41.3321 
*END

*D_NET *31 0.00148931
*CONN
*I *185:A I *D sky130_fd_sc_hd__buf_2
*I *173:Y O *D sky130_fd_sc_hd__a21boi_1
*CAP
1 *185:A 0.000595492
2 *173:Y 0.000595492
3 out[3] *185:A 6.05161e-06
4 *173:B1_N *185:A 5.44797e-05
5 *183:A *185:A 6.72779e-05
6 *184:A *185:A 0.000151333
7 *21:12 *185:A 1.91843e-05
*RES
1 *173:Y *185:A 36.3679 
*END

*D_NET *32 0.00175403
*CONN
*I *186:A I *D sky130_fd_sc_hd__buf_2
*I *161:Y O *D sky130_fd_sc_hd__nor2_1
*CAP
1 *186:A 0.000749545
2 *161:Y 0.000749545
3 *186:A *168:A 0
4 *186:A *187:A 0
5 *186:A *43:10 0
6 *172:A *186:A 0
7 *184:A *186:A 0.000177937
8 *21:12 *186:A 7.70035e-05
*RES
1 *161:Y *186:A 41.0643 
*END

*D_NET *33 0.00305784
*CONN
*I *187:A I *D sky130_fd_sc_hd__buf_2
*I *162:Y O *D sky130_fd_sc_hd__xnor2_1
*CAP
1 *187:A 0.00108531
2 *162:Y 0.00108531
3 *187:A *168:A 0.000346674
4 *187:A *170:A1 0.000418806
5 *168:B *187:A 0.00012173
6 *186:A *187:A 0
*RES
1 *162:Y *187:A 47.7607 
*END

*D_NET *34 0.00859537
*CONN
*I *188:A I *D sky130_fd_sc_hd__buf_2
*I *166:X O *D sky130_fd_sc_hd__clkbuf_1
*CAP
1 *188:A 0.0012197
2 *166:X 0.000711318
3 *34:20 0.00193102
4 *188:A *189:A 0.00167222
5 *188:A *42:12 0.000561963
6 *34:20 *36:14 2.19549e-05
7 *34:20 *37:14 0.000999014
8 *34:20 *41:8 7.24621e-05
9 *177:A *34:20 3.36025e-05
10 *24:12 *34:20 9.99853e-05
11 *28:14 *34:20 0.00127212
*RES
1 *166:X *34:20 40.8357 
2 *34:20 *188:A 38.6036 
*END

*D_NET *35 0.0059173
*CONN
*I *189:A I *D sky130_fd_sc_hd__buf_2
*I *167:X O *D sky130_fd_sc_hd__xor2_1
*CAP
1 *189:A 0.000609512
2 *167:X 0.00101664
3 *35:10 0.00162615
4 *35:10 *173:A1 9.23458e-05
5 *35:10 *42:12 0
6 *168:B *35:10 0.000393005
7 *188:A *189:A 0.00167222
8 *28:27 *35:10 0.00012249
9 *28:40 *35:10 0.000384944
*RES
1 *167:X *35:10 39.675 
2 *35:10 *189:A 25.0321 
*END

*D_NET *36 0.00936597
*CONN
*I *168:A I *D sky130_fd_sc_hd__xor2_1
*I *170:A1 I *D sky130_fd_sc_hd__o21ai_1
*I *158:C I *D sky130_fd_sc_hd__or4_2
*I *169:B I *D sky130_fd_sc_hd__or3_1
*I *176:X O *D sky130_fd_sc_hd__dlymetal6s2s_1
*CAP
1 *168:A 0.000296983
2 *170:A1 0.000143215
3 *158:C 0
4 *169:B 0.000594223
5 *176:X 0.000502943
6 *36:38 0.00112166
7 *36:29 0.00142095
8 *36:14 0.00183665
9 *169:B *164:C 0.000192585
10 *169:B *41:8 0.000464917
11 *36:14 *164:C 0.000177948
12 *36:29 *39:8 0.000180256
13 *158:D *36:38 2.59355e-05
14 *168:B *168:A 0.000400676
15 *171:B *168:A 6.89067e-05
16 *171:B *170:A1 0.000122186
17 *172:A *168:A 0.000177227
18 *175:A *36:14 0.00020455
19 *177:A *36:14 0
20 *178:A *36:14 3.69573e-05
21 *186:A *168:A 0
22 *187:A *168:A 0.000346674
23 *187:A *170:A1 0.000418806
24 *28:14 *169:B 9.25406e-05
25 *28:14 *36:14 0.000517216
26 *34:20 *36:14 2.19549e-05
*RES
1 *176:X *36:14 26.9607 
2 *36:14 *169:B 25.5321 
3 *36:14 *36:29 16.5357 
4 *36:29 *158:C 9.3 
5 *36:29 *36:38 15.3036 
6 *36:38 *170:A1 19.0857 
7 *36:38 *168:A 22.7107 
*END

*D_NET *37 0.00742047
*CONN
*I *158:B I *D sky130_fd_sc_hd__or4_2
*I *170:B1 I *D sky130_fd_sc_hd__o21ai_1
*I *169:A I *D sky130_fd_sc_hd__or3_1
*I *177:X O *D sky130_fd_sc_hd__buf_1
*CAP
1 *158:B 7.45285e-05
2 *170:B1 0.000310421
3 *169:A 0.000251811
4 *177:X 0.000649417
5 *37:29 0.000677426
6 *37:14 0.0011937
7 *158:B *158:A 8.25098e-05
8 *158:B *42:12 0.000112845
9 *169:A *40:10 4.72217e-05
10 *170:B1 *42:12 8.52458e-05
11 *37:14 *163:A2 9.83388e-05
12 *37:14 *163:B1 2.84109e-05
13 *37:29 *163:A2 9.67754e-05
14 *163:A3 *37:14 1.59373e-05
15 *165:A_N *37:29 0.000829318
16 *165:B *170:B1 0.000426051
17 *168:B *158:B 9.71532e-05
18 *170:A2 *170:B1 0.000968091
19 *171:B *170:B1 4.93118e-06
20 *28:40 *158:B 0.000202221
21 *28:40 *170:B1 0.000169095
22 *34:20 *37:14 0.000999014
*RES
1 *177:X *37:14 32.9786 
2 *37:14 *169:A 22.675 
3 *37:14 *37:29 12.8393 
4 *37:29 *170:B1 26.05 
5 *37:29 *158:B 17.5679 
*END

*D_NET *38 0.00596782
*CONN
*I *173:A1 I *D sky130_fd_sc_hd__a21boi_1
*I *158:A I *D sky130_fd_sc_hd__or4_2
*I *178:X O *D sky130_fd_sc_hd__clkbuf_1
*CAP
1 *173:A1 0.000318749
2 *158:A 9.95374e-05
3 *178:X 0.000916202
4 *38:8 0.00133449
5 *158:A *42:12 0.000344917
6 *173:A1 *42:12 0.000285901
7 *38:8 *159:A 2.84026e-05
8 *38:8 *162:A 0.000396838
9 *158:B *158:A 8.25098e-05
10 *168:B *158:A 0.000139767
11 *168:B *173:A1 1.76135e-05
12 *173:A2 *173:A1 0.000178847
13 *173:B1_N *173:A1 0.000546746
14 *20:6 *38:8 8.25843e-06
15 *21:12 *173:A1 0.00117669
16 *35:10 *173:A1 9.23458e-05
*RES
1 *178:X *38:8 25.0143 
2 *38:8 *158:A 18.175 
3 *38:8 *173:A1 28.7821 
*END

*D_NET *39 0.00320047
*CONN
*I *160:A I *D sky130_fd_sc_hd__and2_1
*I *159:A I *D sky130_fd_sc_hd__nor2_1
*I *164:A I *D sky130_fd_sc_hd__or4_1
*I *163:A1 I *D sky130_fd_sc_hd__o31a_1
*I *179:X O *D sky130_fd_sc_hd__buf_1
*CAP
1 *160:A 0.00020143
2 *159:A 2.65277e-05
3 *164:A 0.00012286
4 *163:A1 0.000145532
5 *179:X 0.000270755
6 *39:34 0.000311396
7 *39:21 0.000300618
8 *39:8 0.000510606
9 *163:A1 *163:A2 5.65955e-05
10 *163:A1 *40:21 1.0033e-05
11 *164:A *164:C 1.98839e-05
12 *160:B *160:A 0.000286273
13 *163:A3 *163:A1 0.000273983
14 *163:A3 *39:21 0.000147725
15 *19:16 *164:A 0.000129696
16 *19:33 *160:A 9.11048e-06
17 *19:33 *39:21 2.27129e-05
18 *19:33 *39:34 0.000146071
19 *36:29 *39:8 0.000180256
20 *38:8 *159:A 2.84026e-05
*RES
1 *179:X *39:8 17.2107 
2 *39:8 *163:A1 17.4964 
3 *39:8 *39:21 2.25 
4 *39:21 *164:A 15.9964 
5 *39:21 *39:34 1.94643 
6 *39:34 *159:A 14.3357 
7 *39:34 *160:A 18.1214 
*END

*D_NET *40 0.00498278
*CONN
*I *162:A I *D sky130_fd_sc_hd__xnor2_1
*I *164:B I *D sky130_fd_sc_hd__or4_1
*I *163:A2 I *D sky130_fd_sc_hd__o31a_1
*I *180:X O *D sky130_fd_sc_hd__buf_1
*CAP
1 *162:A 0.000462849
2 *164:B 0
3 *163:A2 4.57573e-05
4 *180:X 0.000484382
5 *40:21 0.000640834
6 *40:10 0.000708124
7 *160:B *162:A 1.02504e-05
8 *161:A *162:A 2.44318e-05
9 *163:A1 *163:A2 5.65955e-05
10 *163:A1 *40:21 1.0033e-05
11 *163:A3 *162:A 7.05375e-05
12 *163:A3 *163:A2 4.74514e-05
13 *163:A3 *40:21 0.000295144
14 *168:B *162:A 0.000578035
15 *169:A *40:10 4.72217e-05
16 *19:33 *162:A 0.00017309
17 *20:6 *162:A 0.000736088
18 *37:14 *163:A2 9.83388e-05
19 *37:29 *163:A2 9.67754e-05
20 *38:8 *162:A 0.000396838
*RES
1 *180:X *40:10 19.675 
2 *40:10 *163:A2 15.5679 
3 *40:10 *40:21 4.375 
4 *40:21 *164:B 13.8 
5 *40:21 *162:A 30.2286 
*END

*D_NET *41 0.00312532
*CONN
*I *164:C I *D sky130_fd_sc_hd__or4_1
*I *163:B1 I *D sky130_fd_sc_hd__o31a_1
*I *181:X O *D sky130_fd_sc_hd__clkbuf_1
*CAP
1 *164:C 0.000396041
2 *163:B1 0.000124729
3 *181:X 0.000159744
4 *41:8 0.000680514
5 *164:A *164:C 1.98839e-05
6 *169:B *164:C 0.000192585
7 *169:B *41:8 0.000464917
8 *19:16 *164:C 5.33005e-05
9 *28:14 *164:C 0.000365682
10 *28:14 *41:8 0.0003891
11 *34:20 *41:8 7.24621e-05
12 *36:14 *164:C 0.000177948
13 *37:14 *163:B1 2.84109e-05
*RES
1 *181:X *41:8 20.6036 
2 *41:8 *163:B1 15.5679 
3 *41:8 *164:C 22.7107 
*END

*D_NET *42 0.00503341
*CONN
*I *167:A I *D sky130_fd_sc_hd__xor2_1
*I *182:X O *D sky130_fd_sc_hd__buf_1
*CAP
1 *167:A 0
2 *182:X 0.0015415
3 *42:12 0.0015415
4 *158:A *42:12 0.000344917
5 *158:B *42:12 0.000112845
6 *165:B *42:12 0
7 *167:B *42:12 0
8 *170:B1 *42:12 8.52458e-05
9 *173:A1 *42:12 0.000285901
10 *173:B1_N *42:12 0.000388153
11 *188:A *42:12 0.000561963
12 *19:8 *42:12 0.000128154
13 *28:27 *42:12 3.79779e-05
14 *28:40 *42:12 5.24684e-06
15 *35:10 *42:12 0
*RES
1 *182:X *42:12 49.2464 
2 *42:12 *167:A 9.3 
*END

*D_NET *43 0.00434298
*CONN
*I *190:A I *D sky130_fd_sc_hd__buf_2
*I *174:X O *D sky130_fd_sc_hd__clkbuf_1
*CAP
1 *190:A 6.18314e-05
2 *174:X 0.00189885
3 *43:10 0.00196069
4 out[3] *43:10 1.12545e-05
5 *183:A *43:10 0.000266955
6 *184:A *43:10 0
7 *186:A *43:10 0
8 *25:10 *43:10 0.000143399
*RES
1 *174:X *43:10 47.6393 
2 *43:10 *190:A 14.7464 
*END
