*SPEF "ieee 1481-1999"
*DESIGN "ALU"
*DATE "23:49:18 Wednesday May 07, 2025"
*VENDOR "The OpenROAD Project"
*PROGRAM "OpenROAD"
*VERSION "b16bda7e82721d10566ff7e2b68f1ff0be9f9e38"
*DESIGN_FLOW "NAME_SCOPE LOCAL" "PIN_CAP NONE"
*DIVIDER /
*DELIMITER :
*BUS_DELIMITER []
*T_UNIT 1 NS
*C_UNIT 1 PF
*R_UNIT 1 OHM
*L_UNIT 1 HENRY

*NAME_MAP
*1 A[0]
*2 A[1]
*3 A[2]
*4 A[3]
*5 A[4]
*6 A[5]
*7 A[6]
*8 A[7]
*9 B[0]
*10 B[1]
*11 B[2]
*12 B[3]
*13 B[4]
*14 B[5]
*15 B[6]
*16 B[7]
*19 opcode[0]
*20 opcode[1]
*21 opcode[2]
*22 out[0]
*23 out[1]
*24 out[2]
*25 out[3]
*26 out[4]
*27 out[5]
*28 out[6]
*29 out[7]
*30 _000_
*31 _001_
*32 _002_
*33 _003_
*34 _004_
*35 _005_
*36 _006_
*37 _007_
*38 _008_
*39 _009_
*40 _010_
*41 _011_
*42 _012_
*43 _013_
*44 _014_
*45 _015_
*46 _016_
*47 _017_
*48 _018_
*49 _019_
*50 _020_
*51 _021_
*52 _022_
*53 _023_
*54 _024_
*55 _025_
*56 _026_
*57 _027_
*58 _028_
*59 _029_
*60 _030_
*61 _031_
*62 _032_
*63 _033_
*64 _034_
*65 _035_
*66 _036_
*67 _037_
*68 _038_
*69 _039_
*70 _040_
*71 _041_
*72 _042_
*73 _043_
*74 _044_
*75 _045_
*76 _046_
*77 _047_
*78 _048_
*79 _049_
*80 _050_
*81 _051_
*82 _052_
*83 _053_
*84 _054_
*85 _055_
*86 _056_
*87 _057_
*88 _058_
*89 _059_
*90 _060_
*91 _061_
*92 _062_
*93 _063_
*94 _064_
*95 _065_
*96 _066_
*97 _067_
*98 _068_
*99 _069_
*100 _070_
*101 _071_
*102 _072_
*103 _073_
*104 _074_
*105 _075_
*106 _076_
*107 _077_
*108 _078_
*109 _079_
*110 _080_
*111 _081_
*112 _082_
*113 _083_
*114 _084_
*115 _085_
*116 _086_
*117 _087_
*118 _088_
*119 _089_
*120 _090_
*121 _091_
*122 _092_
*123 _093_
*124 _094_
*125 _095_
*126 net1
*127 net10
*128 net11
*129 net12
*130 net13
*131 net14
*132 net15
*133 net16
*134 net17
*135 net18
*136 net19
*137 net2
*138 net20
*139 net21
*140 net22
*141 net23
*142 net24
*143 net25
*144 net26
*145 net27
*146 net28
*147 net29
*148 net3
*149 net30
*150 net4
*151 net5
*152 net6
*153 net7
*154 net8
*155 net9
*156 ANTENNA_1
*157 FILLER_0_0_14
*158 FILLER_0_0_26
*159 FILLER_0_0_29
*160 FILLER_0_0_41
*161 FILLER_0_0_53
*162 FILLER_0_0_71
*163 FILLER_0_0_83
*164 FILLER_0_0_85
*165 FILLER_0_10_100
*166 FILLER_0_10_11
*167 FILLER_0_10_23
*168 FILLER_0_10_27
*169 FILLER_0_10_29
*170 FILLER_0_10_35
*171 FILLER_0_10_39
*172 FILLER_0_10_46
*173 FILLER_0_10_58
*174 FILLER_0_10_64
*175 FILLER_0_10_72
*176 FILLER_0_10_80
*177 FILLER_0_10_85
*178 FILLER_0_10_94
*179 FILLER_0_11_40
*180 FILLER_0_11_57
*181 FILLER_0_11_65
*182 FILLER_0_11_81
*183 FILLER_0_11_92
*184 FILLER_0_11_98
*185 FILLER_0_12_20
*186 FILLER_0_12_29
*187 FILLER_0_12_37
*188 FILLER_0_12_55
*189 FILLER_0_12_76
*190 FILLER_0_12_99
*191 FILLER_0_13_22
*192 FILLER_0_13_29
*193 FILLER_0_13_41
*194 FILLER_0_13_53
*195 FILLER_0_13_61
*196 FILLER_0_13_85
*197 FILLER_0_13_93
*198 FILLER_0_1_11
*199 FILLER_0_1_23
*200 FILLER_0_1_35
*201 FILLER_0_1_47
*202 FILLER_0_1_55
*203 FILLER_0_1_57
*204 FILLER_0_1_76
*205 FILLER_0_1_82
*206 FILLER_0_1_89
*207 FILLER_0_1_93
*208 FILLER_0_2_100
*209 FILLER_0_2_15
*210 FILLER_0_2_29
*211 FILLER_0_2_41
*212 FILLER_0_2_45
*213 FILLER_0_2_58
*214 FILLER_0_2_7
*215 FILLER_0_2_70
*216 FILLER_0_2_82
*217 FILLER_0_2_85
*218 FILLER_0_3_19
*219 FILLER_0_3_23
*220 FILLER_0_3_28
*221 FILLER_0_3_40
*222 FILLER_0_3_52
*223 FILLER_0_3_63
*224 FILLER_0_3_7
*225 FILLER_0_3_71
*226 FILLER_0_3_80
*227 FILLER_0_3_85
*228 FILLER_0_3_93
*229 FILLER_0_3_97
*230 FILLER_0_4_11
*231 FILLER_0_4_17
*232 FILLER_0_4_26
*233 FILLER_0_4_32
*234 FILLER_0_4_44
*235 FILLER_0_4_57
*236 FILLER_0_4_7
*237 FILLER_0_4_79
*238 FILLER_0_4_83
*239 FILLER_0_4_85
*240 FILLER_0_4_89
*241 FILLER_0_5_19
*242 FILLER_0_5_31
*243 FILLER_0_5_39
*244 FILLER_0_5_57
*245 FILLER_0_5_69
*246 FILLER_0_5_77
*247 FILLER_0_5_90
*248 FILLER_0_6_101
*249 FILLER_0_6_17
*250 FILLER_0_6_22
*251 FILLER_0_6_29
*252 FILLER_0_6_34
*253 FILLER_0_6_46
*254 FILLER_0_6_53
*255 FILLER_0_6_57
*256 FILLER_0_6_65
*257 FILLER_0_6_72
*258 FILLER_0_6_9
*259 FILLER_0_7_101
*260 FILLER_0_7_11
*261 FILLER_0_7_23
*262 FILLER_0_7_38
*263 FILLER_0_7_48
*264 FILLER_0_7_62
*265 FILLER_0_7_83
*266 FILLER_0_8_10
*267 FILLER_0_8_19
*268 FILLER_0_8_27
*269 FILLER_0_8_3
*270 FILLER_0_8_45
*271 FILLER_0_8_57
*272 FILLER_0_8_80
*273 FILLER_0_8_89
*274 FILLER_0_9_24
*275 FILLER_0_9_36
*276 FILLER_0_9_46
*277 FILLER_0_9_52
*278 FILLER_0_9_70
*279 FILLER_0_9_97
*280 PHY_EDGE_ROW_0_Left_14
*281 PHY_EDGE_ROW_0_Right_0
*282 PHY_EDGE_ROW_10_Left_24
*283 PHY_EDGE_ROW_10_Right_10
*284 PHY_EDGE_ROW_11_Left_25
*285 PHY_EDGE_ROW_11_Right_11
*286 PHY_EDGE_ROW_12_Left_26
*287 PHY_EDGE_ROW_12_Right_12
*288 PHY_EDGE_ROW_13_Left_27
*289 PHY_EDGE_ROW_13_Right_13
*290 PHY_EDGE_ROW_1_Left_15
*291 PHY_EDGE_ROW_1_Right_1
*292 PHY_EDGE_ROW_2_Left_16
*293 PHY_EDGE_ROW_2_Right_2
*294 PHY_EDGE_ROW_3_Left_17
*295 PHY_EDGE_ROW_3_Right_3
*296 PHY_EDGE_ROW_4_Left_18
*297 PHY_EDGE_ROW_4_Right_4
*298 PHY_EDGE_ROW_5_Left_19
*299 PHY_EDGE_ROW_5_Right_5
*300 PHY_EDGE_ROW_6_Left_20
*301 PHY_EDGE_ROW_6_Right_6
*302 PHY_EDGE_ROW_7_Left_21
*303 PHY_EDGE_ROW_7_Right_7
*304 PHY_EDGE_ROW_8_Left_22
*305 PHY_EDGE_ROW_8_Right_8
*306 PHY_EDGE_ROW_9_Left_23
*307 PHY_EDGE_ROW_9_Right_9
*308 TAP_TAPCELL_ROW_0_28
*309 TAP_TAPCELL_ROW_0_29
*310 TAP_TAPCELL_ROW_0_30
*311 TAP_TAPCELL_ROW_10_44
*312 TAP_TAPCELL_ROW_10_45
*313 TAP_TAPCELL_ROW_11_46
*314 TAP_TAPCELL_ROW_12_47
*315 TAP_TAPCELL_ROW_12_48
*316 TAP_TAPCELL_ROW_13_49
*317 TAP_TAPCELL_ROW_13_50
*318 TAP_TAPCELL_ROW_13_51
*319 TAP_TAPCELL_ROW_1_31
*320 TAP_TAPCELL_ROW_2_32
*321 TAP_TAPCELL_ROW_2_33
*322 TAP_TAPCELL_ROW_3_34
*323 TAP_TAPCELL_ROW_4_35
*324 TAP_TAPCELL_ROW_4_36
*325 TAP_TAPCELL_ROW_5_37
*326 TAP_TAPCELL_ROW_6_38
*327 TAP_TAPCELL_ROW_6_39
*328 TAP_TAPCELL_ROW_7_40
*329 TAP_TAPCELL_ROW_8_41
*330 TAP_TAPCELL_ROW_8_42
*331 TAP_TAPCELL_ROW_9_43
*332 _096_
*333 _097_
*334 _098_
*335 _099_
*336 _100_
*337 _101_
*338 _102_
*339 _103_
*340 _104_
*341 _105_
*342 _106_
*343 _107_
*344 _108_
*345 _109_
*346 _110_
*347 _111_
*348 _112_
*349 _113_
*350 _114_
*351 _115_
*352 _116_
*353 _117_
*354 _118_
*355 _119_
*356 _120_
*357 _121_
*358 _122_
*359 _123_
*360 _124_
*361 _125_
*362 _126_
*363 _127_
*364 _128_
*365 _129_
*366 _130_
*367 _131_
*368 _132_
*369 _133_
*370 _134_
*371 _135_
*372 _136_
*373 _137_
*374 _138_
*375 _139_
*376 _140_
*377 _141_
*378 _142_
*379 _143_
*380 _144_
*381 _145_
*382 _146_
*383 _147_
*384 _148_
*385 _149_
*386 _150_
*387 _151_
*388 _152_
*389 _153_
*390 _154_
*391 _155_
*392 _156_
*393 _157_
*394 _158_
*395 _159_
*396 _160_
*397 _161_
*398 _162_
*399 _163_
*400 _164_
*401 _165_
*402 _166_
*403 _167_
*404 _168_
*405 _169_
*406 _170_
*407 _171_
*408 _172_
*409 _173_
*410 _174_
*411 _175_
*412 _176_
*413 _177_
*414 _178_
*415 _179_
*416 _180_
*417 _181_
*418 _182_
*419 _183_
*420 _184_
*421 _185_
*422 _186_
*423 _187_
*424 _188_
*425 _189_
*426 _190_
*427 _191_
*428 _192_
*429 _193_
*430 _194_
*431 _195_
*432 _196_
*433 _197_
*434 _198_
*435 _199_
*436 clone1
*437 input1
*438 input10
*439 input11
*440 input12
*441 input13
*442 input14
*443 input15
*444 input16
*445 input17
*446 input18
*447 input19
*448 input2
*449 input3
*450 input4
*451 input5
*452 input6
*453 input7
*454 input8
*455 input9
*456 output20
*457 output21
*458 output22
*459 output23
*460 output24
*461 output25
*462 output26
*463 output27
*464 rebuffer2
*465 rebuffer3

*PORTS
A[0] I
A[1] I
A[2] I
A[3] I
A[4] I
A[5] I
A[6] I
A[7] I
B[0] I
B[1] I
B[2] I
B[3] I
B[4] I
B[5] I
B[6] I
B[7] I
opcode[0] I
opcode[1] I
opcode[2] I
out[0] O
out[1] O
out[2] O
out[3] O
out[4] O
out[5] O
out[6] O
out[7] O

*D_NET *1 0.00089992
*CONN
*P A[0] I
*I *437:A I *D sky130_fd_sc_hd__dlymetal6s2s_1
*CAP
1 A[0] 0.00036919
2 *437:A 0
3 *1:17 0.00036919
4 *1:17 *372:A_N 1.3523e-05
5 *1:17 *444:A 4.02128e-05
6 *1:17 *2:17 4.16123e-05
7 *1:17 *131:14 6.61924e-05
*RES
1 A[0] *1:17 28.2148 
2 *1:17 *437:A 23 
*END

*D_NET *2 0.000913945
*CONN
*P A[1] I
*I *448:A I *D sky130_fd_sc_hd__clkbuf_2
*CAP
1 A[1] 0.000392056
2 *448:A 0
3 *2:17 0.000392056
4 *2:17 *449:A 3.67849e-05
5 *2:17 *131:14 5.14362e-05
6 *1:17 *2:17 4.16123e-05
*RES
1 A[1] *2:17 28.3391 
2 *2:17 *448:A 23 
*END

*D_NET *3 0.00120434
*CONN
*P A[2] I
*I *449:A I *D sky130_fd_sc_hd__clkbuf_2
*CAP
1 A[2] 0.000386572
2 *449:A 0.000386572
3 *449:A *451:A 0
4 *449:A *4:17 4.02128e-05
5 *449:A *65:46 0.000116476
6 *449:A *153:16 0.000237727
7 *2:17 *449:A 3.67849e-05
*RES
1 A[2] *449:A 49.9819 
*END

*D_NET *4 0.000920088
*CONN
*P A[3] I
*I *450:A I *D sky130_fd_sc_hd__clkbuf_2
*CAP
1 A[3] 0.000395827
2 *450:A 0
3 *4:17 0.000395827
4 *4:17 *451:A 3.67849e-05
5 *4:17 *131:14 5.14362e-05
6 *449:A *4:17 4.02128e-05
*RES
1 A[3] *4:17 28.3391 
2 *4:17 *450:A 23 
*END

*D_NET *5 0.00150993
*CONN
*P A[4] I
*I *451:A I *D sky130_fd_sc_hd__clkbuf_2
*CAP
1 A[4] 0.000585665
2 *451:A 0.000585665
3 *451:A *6:17 4.02128e-05
4 *451:A *7:13 0
5 *451:A *46:22 0
6 *451:A *54:24 7.80802e-05
7 *451:A *145:26 0
8 *451:A *152:10 0.000183519
9 *449:A *451:A 0
10 *4:17 *451:A 3.67849e-05
*RES
1 A[4] *451:A 49.9733 
*END

*D_NET *6 0.00108355
*CONN
*P A[5] I
*I *452:A I *D sky130_fd_sc_hd__clkbuf_2
*CAP
1 A[5] 0.000313235
2 *452:A 0
3 *6:17 0.000313235
4 *6:17 *7:13 0.000416865
5 *451:A *6:17 4.02128e-05
*RES
1 A[5] *6:17 28.3391 
2 *6:17 *452:A 23 
*END

*D_NET *7 0.00147509
*CONN
*P A[6] I
*I *453:A I *D sky130_fd_sc_hd__clkbuf_2
*CAP
1 A[6] 0.000469384
2 *453:A 0
3 *7:13 0.000469384
4 *7:13 *8:13 5.29942e-05
5 *7:13 *131:14 0
6 *7:13 *152:10 3.22879e-05
7 *7:13 *153:16 3.41711e-05
8 *451:A *7:13 0
9 *6:17 *7:13 0.000416865
*RES
1 A[6] *7:13 33.4889 
2 *7:13 *453:A 23 
*END

*D_NET *8 0.0026383
*CONN
*P A[7] I
*I *454:A I *D sky130_fd_sc_hd__buf_1
*CAP
1 A[7] 0.00116065
2 *454:A 0
3 *8:13 0.00116065
4 *8:13 *137:18 3.70094e-05
5 *8:13 *145:26 0
6 *8:13 *153:51 0.000226985
7 *7:13 *8:13 5.29942e-05
*RES
1 A[7] *8:13 37.7187 
2 *8:13 *454:A 23 
*END

*D_NET *9 0.000982183
*CONN
*P B[0] I
*I *455:A I *D sky130_fd_sc_hd__clkbuf_2
*CAP
1 B[0] 0.000371203
2 *455:A 0
3 *9:17 0.000371203
4 *9:17 *10:17 3.8294e-05
5 *9:17 *21:13 0.000201483
*RES
1 B[0] *9:17 29.0434 
2 *9:17 *455:A 23 
*END

*D_NET *10 0.000967288
*CONN
*P B[1] I
*I *438:A I *D sky130_fd_sc_hd__clkbuf_2
*CAP
1 B[1] 0.000305301
2 *438:A 0
3 *10:17 0.000305301
4 *10:17 *439:A 3.67849e-05
5 *10:17 *21:13 0.000281607
6 *9:17 *10:17 3.8294e-05
*RES
1 B[1] *10:17 28.3391 
2 *10:17 *438:A 23 
*END

*D_NET *11 0.00116858
*CONN
*P B[2] I
*I *439:A I *D sky130_fd_sc_hd__clkbuf_2
*CAP
1 B[2] 0.000425164
2 *439:A 0.000425164
3 *439:A *12:17 4.35051e-05
4 *439:A *13:15 0
5 *439:A *32:18 0.00017592
6 *439:A *33:16 3.7742e-05
7 *439:A *54:24 1.57781e-05
8 *439:A *152:97 8.52094e-06
9 *10:17 *439:A 3.67849e-05
*RES
1 B[2] *439:A 49.6298 
*END

*D_NET *12 0.00109221
*CONN
*P B[3] I
*I *440:A I *D sky130_fd_sc_hd__clkbuf_2
*CAP
1 B[3] 0.000320722
2 *440:A 0
3 *12:17 0.000320722
4 *12:17 *13:15 0.000299026
5 *12:17 *129:14 0.000100486
6 *12:17 *131:40 7.75329e-06
7 *439:A *12:17 4.35051e-05
*RES
1 B[3] *12:17 28.3391 
2 *12:17 *440:A 23 
*END

*D_NET *13 0.00188652
*CONN
*P B[4] I
*I *441:A I *D sky130_fd_sc_hd__clkbuf_2
*CAP
1 B[4] 0.000567423
2 *441:A 0
3 *13:15 0.000567423
4 *13:15 *14:17 3.54683e-05
5 *13:15 *15:13 0
6 *13:15 *129:14 4.53082e-05
7 *13:15 *131:40 0.000353389
8 *13:15 *152:97 1.84831e-05
9 *439:A *13:15 0
10 *12:17 *13:15 0.000299026
*RES
1 B[4] *13:15 32.8912 
2 *13:15 *441:A 23 
*END

*D_NET *14 0.00109308
*CONN
*P B[5] I
*I *442:A I *D sky130_fd_sc_hd__clkbuf_2
*CAP
1 B[5] 0.000321224
2 *442:A 0
3 *14:17 0.000321224
4 *14:17 *15:13 0.000350469
5 *14:17 *131:8 6.46983e-05
6 *13:15 *14:17 3.54683e-05
*RES
1 B[5] *14:17 27.6348 
2 *14:17 *442:A 23 
*END

*D_NET *15 0.00160437
*CONN
*P B[6] I
*I *443:A I *D sky130_fd_sc_hd__clkbuf_2
*CAP
1 B[6] 0.000480501
2 *443:A 0
3 *15:13 0.000480501
4 *15:13 *444:A 5.29942e-05
5 *15:13 *63:72 5.12254e-05
6 *15:13 *131:8 8.06804e-06
7 *15:13 *131:14 0.000133892
8 *15:13 *131:40 4.67148e-05
9 *13:15 *15:13 0
10 *14:17 *15:13 0.000350469
*RES
1 B[6] *15:13 31.376 
2 *15:13 *443:A 23 
*END

*D_NET *16 0.0014062
*CONN
*P B[7] I
*I *444:A I *D sky130_fd_sc_hd__buf_1
*CAP
1 B[7] 0.000490274
2 *444:A 0.000490274
3 *444:A *32:18 0.000179312
4 *444:A *46:10 0.000124641
5 *444:A *129:43 0
6 *444:A *136:18 2.84912e-05
7 *1:17 *444:A 4.02128e-05
8 *15:13 *444:A 5.29942e-05
*RES
1 B[7] *444:A 49.4494 
*END

*D_NET *19 0.00142239
*CONN
*P opcode[0] I
*I *445:A I *D sky130_fd_sc_hd__buf_6
*CAP
1 opcode[0] 0.000498777
2 *445:A 0
3 *19:11 0.000498777
4 *19:11 *20:13 0.000424833
*RES
1 opcode[0] *19:11 30.1426 
2 *19:11 *445:A 23 
*END

*D_NET *20 0.0017307
*CONN
*P opcode[1] I
*I *446:A I *D sky130_fd_sc_hd__buf_4
*CAP
1 opcode[1] 0.000541985
2 *446:A 0
3 *20:13 0.000541985
4 *20:13 *21:13 4.56215e-05
5 *20:13 *155:6 0.000176276
6 *19:11 *20:13 0.000424833
*RES
1 opcode[1] *20:13 30.8913 
2 *20:13 *446:A 23 
*END

*D_NET *21 0.00132321
*CONN
*P opcode[2] I
*I *447:A I *D sky130_fd_sc_hd__buf_4
*CAP
1 opcode[2] 0.000368432
2 *447:A 0
3 *21:13 0.000368432
4 *21:13 *127:6 5.76359e-05
5 *9:17 *21:13 0.000201483
6 *10:17 *21:13 0.000281607
7 *20:13 *21:13 4.56215e-05
*RES
1 opcode[2] *21:13 31.2517 
2 *21:13 *447:A 23 
*END

*D_NET *22 0.00113641
*CONN
*P out[0] O
*I *456:X O *D sky130_fd_sc_hd__buf_2
*CAP
1 out[0] 0.000241531
2 *456:X 0.000314476
3 *22:8 0.000556007
4 out[0] out[1] 0
5 *22:8 *456:A 2.43996e-05
*RES
1 *456:X *22:8 44.6596 
2 *22:8 out[0] 8.84373 
*END

*D_NET *23 0.000921689
*CONN
*P out[1] O
*I *457:X O *D sky130_fd_sc_hd__buf_2
*CAP
1 out[1] 0.000334189
2 *457:X 0.000334189
3 out[1] out[2] 0
4 out[1] *30:18 0.000124634
5 out[1] *138:22 0.000116629
6 out[1] *139:28 1.20476e-05
7 out[0] out[1] 0
*RES
1 *457:X out[1] 47.5083 
*END

*D_NET *24 0.00120062
*CONN
*P out[2] O
*I *458:X O *D sky130_fd_sc_hd__buf_2
*CAP
1 out[2] 0.000394092
2 *458:X 0.000394092
3 out[2] out[3] 0
4 out[2] *30:18 0.000150553
5 out[2] *39:32 0.000150714
6 out[2] *129:124 0.000111172
7 out[1] out[2] 0
*RES
1 *458:X out[2] 48.9255 
*END

*D_NET *25 0.00141065
*CONN
*P out[3] O
*I *459:X O *D sky130_fd_sc_hd__buf_2
*CAP
1 out[3] 0.000418374
2 *459:X 0.000418374
3 out[3] out[4] 0
4 out[3] *30:18 0.000213835
5 out[3] *39:32 0.000216438
6 out[3] *127:132 2.73018e-05
7 out[3] *129:103 0.000116324
8 out[2] out[3] 0
*RES
1 *459:X out[3] 49.9819 
*END

*D_NET *26 0.00399876
*CONN
*P out[4] O
*I *460:X O *D sky130_fd_sc_hd__buf_2
*CAP
1 out[4] 0.00148832
2 *460:X 0.00148832
3 out[4] out[5] 0
4 out[4] *52:12 8.64901e-05
5 out[4] *53:33 0
6 out[4] *78:33 9.39521e-05
7 out[4] *78:96 0.000264513
8 out[4] *91:24 0.00010234
9 out[4] *92:32 0.000220763
10 out[4] *134:142 3.41998e-06
11 out[4] *143:22 0.000227981
12 out[4] *150:47 2.26497e-05
13 out[3] out[4] 0
*RES
1 *460:X out[4] 49.7632 
*END

*D_NET *27 0.000604094
*CONN
*P out[5] O
*I *461:X O *D sky130_fd_sc_hd__buf_2
*CAP
1 out[5] 0.00027848
2 *461:X 0.00027848
3 out[5] out[6] 0
4 out[5] *39:32 2.44846e-05
5 out[5] *60:37 2.26497e-05
6 out[4] out[5] 0
*RES
1 *461:X out[5] 47.1648 
*END

*D_NET *28 0.00150047
*CONN
*P out[6] O
*I *462:X O *D sky130_fd_sc_hd__buf_2
*CAP
1 out[6] 0.000624791
2 *462:X 0.000624791
3 out[6] out[7] 0
4 out[6] *98:18 0
5 out[6] *107:14 0.000126725
6 out[6] *129:88 0
7 out[6] *145:26 0
8 out[6] *148:89 0.000120421
9 out[6] *151:58 2.35118e-06
10 out[6] *155:77 1.38991e-06
11 out[5] out[6] 0
*RES
1 *462:X out[6] 49.0886 
*END

*D_NET *29 0.00207572
*CONN
*P out[7] O
*I *463:X O *D sky130_fd_sc_hd__buf_6
*CAP
1 out[7] 0.000413299
2 *463:X 0.000478016
3 *29:12 0.000891315
4 out[7] *145:26 4.72589e-05
5 *29:12 *98:18 1.83519e-05
6 *29:12 *107:14 5.29672e-05
7 *29:12 *145:26 7.9952e-05
8 *29:12 *148:89 9.45591e-05
9 out[6] out[7] 0
*RES
1 *463:X *29:12 47.9325 
2 *29:12 out[7] 9.61653 
*END

*D_NET *30 0.0108019
*CONN
*I *410:A2 I *D sky130_fd_sc_hd__a31o_1
*I *404:X O *D sky130_fd_sc_hd__a211o_1
*CAP
1 *410:A2 0
2 *404:X 0.000324785
3 *30:18 0.00192069
4 *30:8 0.00224548
5 *30:8 *404:B1 6.08617e-05
6 *30:8 *104:14 0.00021677
7 *30:18 *364:B1 2.44754e-05
8 *30:18 *39:32 0.000191216
9 *30:18 *71:76 0.000216317
10 *30:18 *79:20 1.73198e-05
11 *30:18 *89:16 2.26406e-05
12 *30:18 *111:26 1.16209e-05
13 *30:18 *111:39 0.000140786
14 *30:18 *119:53 8.72173e-05
15 *30:18 *126:70 4.38561e-05
16 *30:18 *127:84 1.31865e-05
17 *30:18 *129:103 4.51403e-05
18 *30:18 *129:124 0.00046877
19 *30:18 *137:72 0.0009085
20 *30:18 *137:84 0.000850041
21 *30:18 *138:22 0.000149434
22 *30:18 *140:26 0.00235372
23 out[1] *30:18 0.000124634
24 out[2] *30:18 0.000150553
25 out[3] *30:18 0.000213835
*RES
1 *404:X *30:8 41.9564 
2 *30:8 *30:18 37.0782 
3 *30:18 *410:A2 38 
*END

*D_NET *31 0.00501095
*CONN
*I *410:A3 I *D sky130_fd_sc_hd__a31o_1
*I *405:Y O *D sky130_fd_sc_hd__o211ai_1
*CAP
1 *410:A3 0
2 *405:Y 0.000393401
3 *31:12 0.000450659
4 *31:8 0.00084406
5 *31:8 *84:32 4.7146e-05
6 *31:8 *85:8 5.62529e-05
7 *31:8 *86:10 0.000158744
8 *31:8 *119:87 0.000248997
9 *31:8 *124:40 4.81537e-05
10 *31:8 *125:10 0.000183412
11 *31:12 *346:A1 4.19308e-05
12 *31:12 *346:A2 5.5792e-05
13 *31:12 *346:B1 7.48414e-05
14 *31:12 *348:A1 0.000172087
15 *31:12 *349:C 0.000141177
16 *31:12 *72:6 0.00088197
17 *31:12 *74:16 8.84976e-05
18 *31:12 *75:12 5.16944e-05
19 *31:12 *126:70 0.000100486
20 *31:12 *137:72 0.000494323
21 *31:12 *143:12 2.94823e-05
22 *31:12 *146:59 0.000447844
*RES
1 *405:Y *31:8 45.8921 
2 *31:8 *31:12 32.2964 
3 *31:12 *410:A3 23 
*END

*D_NET *32 0.00608396
*CONN
*I *407:B2 I *D sky130_fd_sc_hd__o22a_1
*I *406:Y O *D sky130_fd_sc_hd__a21oi_1
*CAP
1 *407:B2 0
2 *406:Y 0.00028053
3 *32:18 0.00075653
4 *32:8 0.00103706
5 *32:8 *46:10 0.000590028
6 *32:8 *152:10 0.000113389
7 *32:8 *152:25 0.000103306
8 *32:8 *153:16 0.000845242
9 *32:18 *407:B1 3.85196e-05
10 *32:18 *421:B 0.000168744
11 *32:18 *433:A2 0.000230029
12 *32:18 *33:8 0.00022649
13 *32:18 *33:16 0
14 *32:18 *46:10 1.83139e-05
15 *32:18 *65:71 7.37814e-06
16 *32:18 *128:14 9.76889e-05
17 *32:18 *129:14 2.93518e-05
18 *32:18 *136:18 0.000147983
19 *32:18 *152:97 8.8288e-05
20 *32:18 *153:16 0.000238885
21 *32:18 *153:31 0.000710968
22 *439:A *32:18 0.00017592
23 *444:A *32:18 0.000179312
*RES
1 *406:Y *32:8 49.5896 
2 *32:8 *32:18 35.8696 
3 *32:18 *407:B2 23 
*END

*D_NET *33 0.00888145
*CONN
*I *409:B1 I *D sky130_fd_sc_hd__a311o_1
*I *407:X O *D sky130_fd_sc_hd__o22a_1
*CAP
1 *409:B1 0
2 *407:X 0.000170053
3 *33:24 0.000947887
4 *33:16 0.00171047
5 *33:8 0.000932632
6 *33:8 *407:B1 0.000102389
7 *33:8 *128:14 1.10658e-05
8 *33:8 *131:40 0.000309966
9 *33:8 *131:53 0.000231457
10 *33:16 *65:46 0.00141044
11 *33:16 *129:14 0.000427594
12 *33:16 *131:14 0.000704953
13 *33:16 *131:40 0.000848262
14 *33:16 *145:26 0.000246923
15 *33:24 *409:A2 0.000550407
16 *33:24 *81:12 0
17 *33:24 *131:14 7.95355e-06
18 *33:24 *152:31 4.77164e-06
19 *439:A *33:16 3.7742e-05
20 *32:18 *33:8 0.00022649
21 *32:18 *33:16 0
*RES
1 *407:X *33:8 43.8621 
2 *33:8 *33:16 44.6732 
3 *33:16 *33:24 43.4954 
4 *33:24 *409:B1 23 
*END

*D_NET *34 0.00175244
*CONN
*I *409:C1 I *D sky130_fd_sc_hd__a311o_1
*I *408:Y O *D sky130_fd_sc_hd__nor2_1
*CAP
1 *409:C1 0.00024056
2 *408:Y 9.67328e-05
3 *34:8 0.000337293
4 *409:C1 *409:A2 0.000102944
5 *409:C1 *150:22 0.000189437
6 *409:C1 *151:6 0.000707815
7 *34:8 *394:B1 7.54989e-06
8 *34:8 *150:22 0
9 *34:8 *152:48 7.01132e-05
*RES
1 *408:Y *34:8 39.5536 
2 *34:8 *409:C1 46.265 
*END

*D_NET *35 0.0070097
*CONN
*I *410:B1 I *D sky130_fd_sc_hd__a31o_1
*I *409:X O *D sky130_fd_sc_hd__a311o_1
*CAP
1 *410:B1 0
2 *409:X 5.5061e-05
3 *35:28 0.00200363
4 *35:12 0.00205869
5 *35:12 *48:20 0.000135672
6 *35:12 *80:16 8.02083e-05
7 *35:12 *81:12 6.10551e-06
8 *35:28 *60:138 0.0005327
9 *35:28 *64:36 0.000269704
10 *35:28 *79:20 4.93791e-05
11 *35:28 *99:57 0.000942195
12 *35:28 *109:30 6.04036e-05
13 *35:28 *128:32 0.00052423
14 *35:28 *137:72 7.5095e-06
15 *35:28 *138:22 7.6084e-05
16 *35:28 *146:59 0.000208128
*RES
1 *409:X *35:12 46.5917 
2 *35:12 *35:28 47.6658 
3 *35:28 *410:B1 23 
*END

*D_NET *36 0.00752572
*CONN
*I *412:B I *D sky130_fd_sc_hd__xnor2_1
*I *428:A2 I *D sky130_fd_sc_hd__o21ai_1
*I *411:X O *D sky130_fd_sc_hd__o21a_1
*CAP
1 *412:B 0
2 *428:A2 0
3 *411:X 0
4 *36:27 0.000881725
5 *36:12 0.00186696
6 *36:6 0.000985232
7 *36:12 *392:A2 0.000104604
8 *36:12 *411:A2 0.000148116
9 *36:12 *58:8 0.000464292
10 *36:12 *88:46 0.000284367
11 *36:12 *100:12 3.39581e-05
12 *36:12 *121:10 0.00029397
13 *36:12 *121:61 0.000424674
14 *36:12 *132:112 0.000347892
15 *36:27 *387:A2 6.96685e-05
16 *36:27 *434:A2 0.000108283
17 *36:27 *434:B1 6.58415e-06
18 *36:27 *58:8 0.000330501
19 *36:27 *60:22 0.000777365
20 *36:27 *71:25 0.000137361
21 *36:27 *85:18 6.17437e-06
22 *36:27 *87:26 2.10042e-05
23 *36:27 *94:60 0.000112024
24 *36:27 *134:134 1.33002e-05
25 *36:27 *136:42 5.43589e-05
26 *36:27 *142:20 5.3304e-05
*RES
1 *411:X *36:6 38 
2 *36:6 *36:12 32.8557 
3 *36:12 *428:A2 23 
4 *36:12 *36:27 45.4321 
5 *36:27 *412:B 23 
*END

*D_NET *37 0.0145895
*CONN
*I *413:B I *D sky130_fd_sc_hd__xor2_1
*I *424:B I *D sky130_fd_sc_hd__and2_1
*I *412:Y O *D sky130_fd_sc_hd__xnor2_1
*CAP
1 *413:B 0.00015897
2 *424:B 0
3 *412:Y 0.000117034
4 *37:40 0.000851035
5 *37:34 0.00135412
6 *37:22 0.0024583
7 *37:12 0.00191329
8 *413:B *64:36 1.99169e-05
9 *413:B *89:16 0.000146614
10 *413:B *153:44 0.000205888
11 *37:12 *68:22 0.000142779
12 *37:12 *129:64 4.51815e-05
13 *37:12 *143:22 4.96824e-05
14 *37:12 *150:47 0.000138262
15 *37:22 *60:122 0.000119214
16 *37:22 *69:28 8.85371e-05
17 *37:22 *93:18 0.00143194
18 *37:22 *113:24 0.000714601
19 *37:22 *130:14 0.000254182
20 *37:22 *130:81 0.000456115
21 *37:34 *60:153 0.000387879
22 *37:34 *64:36 4.07138e-06
23 *37:34 *88:46 6.3704e-06
24 *37:34 *122:6 0.00022283
25 *37:34 *122:19 4.21921e-05
26 *37:34 *130:10 0.000261458
27 *37:34 *152:97 9.90923e-05
28 *37:34 *153:44 4.30894e-05
29 *37:40 *365:B1 0.000222548
30 *37:40 *48:35 0.000304157
31 *37:40 *78:70 0.000242586
32 *37:40 *87:47 0.000322128
33 *37:40 *88:10 0.000927957
34 *37:40 *90:8 0.000499943
35 *37:40 *134:33 3.61442e-05
36 *37:40 *135:23 8.12353e-05
37 *37:40 *135:27 2.70469e-05
38 *37:40 *148:14 8.4047e-05
39 *37:40 *152:25 5.58003e-05
40 *37:40 *154:27 5.3304e-05
*RES
1 *412:Y *37:12 48.1807 
2 *37:12 *37:22 28.7656 
3 *37:22 *37:34 39.5596 
4 *37:34 *37:40 37.9514 
5 *37:40 *424:B 23 
6 *37:22 *413:B 41.1382 
*END

*D_NET *38 0.00728172
*CONN
*I *417:B1 I *D sky130_fd_sc_hd__o311a_4
*I *416:A I *D sky130_fd_sc_hd__or2_1
*I *413:X O *D sky130_fd_sc_hd__xor2_1
*CAP
1 *417:B1 0.000602956
2 *416:A 0.000263621
3 *413:X 6.27688e-05
4 *38:14 0.00211401
5 *38:8 0.00131021
6 *416:A *40:8 0.00034946
7 *416:A *42:8 0
8 *416:A *65:110 0.000421532
9 *417:B1 *417:C1 0.000141954
10 *417:B1 *39:49 9.86777e-06
11 *417:B1 *42:8 0
12 *417:B1 *65:110 8.57577e-05
13 *417:B1 *73:14 1.82833e-05
14 *417:B1 *119:87 3.27809e-05
15 *417:B1 *124:40 0
16 *417:B1 *124:55 0.000229122
17 *38:8 *67:8 3.062e-05
18 *38:8 *143:12 8.10876e-05
19 *38:14 *358:B1_N 0.000183547
20 *38:14 *74:16 0.000149066
21 *38:14 *128:79 0.000534207
22 *38:14 *128:96 0.000660873
*RES
1 *413:X *38:8 39.2014 
2 *38:8 *38:14 48.2493 
3 *38:14 *416:A 44.1314 
4 *38:14 *417:B1 48.8336 
*END

*D_NET *39 0.0131773
*CONN
*I *417:A2 I *D sky130_fd_sc_hd__o311a_4
*I *415:A3 I *D sky130_fd_sc_hd__o31a_1
*I *414:X O *D sky130_fd_sc_hd__o21a_1
*CAP
1 *417:A2 0
2 *415:A3 6.50829e-05
3 *414:X 0.000692103
4 *39:49 0.000934928
5 *39:32 0.002026
6 *39:26 0.00150291
7 *39:12 0.00116903
8 *415:A3 *60:108 0.000186032
9 *415:A3 *112:56 0.000230718
10 *39:12 *48:20 0.00067068
11 *39:12 *51:24 1.17289e-05
12 *39:12 *60:66 5.58975e-06
13 *39:12 *63:30 1.10624e-05
14 *39:12 *82:14 2.04785e-05
15 *39:12 *109:30 3.95873e-05
16 *39:12 *132:50 4.99836e-05
17 *39:12 *134:74 4.26047e-06
18 *39:12 *153:86 0.000790456
19 *39:12 *155:77 4.99403e-05
20 *39:26 *352:A 5.3304e-05
21 *39:26 *371:A1 1.21972e-05
22 *39:26 *60:37 0.000141177
23 *39:26 *60:54 5.88621e-05
24 *39:26 *94:60 6.17437e-06
25 *39:26 *98:18 0.000168314
26 *39:26 *129:88 5.3304e-05
27 *39:26 *153:86 0.000169379
28 *39:32 *381:B2 0.000238758
29 *39:32 *41:14 8.08491e-05
30 *39:32 *53:33 0.000592415
31 *39:32 *60:37 0.000337559
32 *39:32 *71:76 1.7387e-05
33 *39:32 *112:56 0.000269099
34 *39:32 *119:53 0.000300108
35 *39:32 *139:28 0
36 *39:32 *141:18 4.68153e-05
37 *39:32 *144:10 0.000400206
38 *39:32 *151:100 0.000115568
39 *39:49 *417:C1 7.9566e-05
40 *39:49 *79:12 0.000124763
41 *39:49 *119:87 0.000199761
42 *39:49 *124:55 0.000210309
43 *39:49 *128:96 1.255e-05
44 *39:49 *137:84 2.14797e-05
45 *39:49 *139:28 0.000414103
46 out[2] *39:32 0.000150714
47 out[3] *39:32 0.000216438
48 out[5] *39:32 2.44846e-05
49 *417:B1 *39:49 9.86777e-06
50 *30:18 *39:32 0.000191216
*RES
1 *414:X *39:12 48.5237 
2 *39:12 *39:26 46.4618 
3 *39:26 *39:32 43.5029 
4 *39:32 *415:A3 25.5271 
5 *39:32 *39:49 48.2079 
6 *39:49 *417:A2 23 
*END

*D_NET *40 0.00112644
*CONN
*I *416:B I *D sky130_fd_sc_hd__or2_1
*I *415:X O *D sky130_fd_sc_hd__o31a_1
*CAP
1 *416:B 4.54044e-05
2 *415:X 0.000224577
3 *40:8 0.000269981
4 *416:B *405:A1 2.64616e-05
5 *40:8 *42:8 5.96346e-06
6 *40:8 *102:26 0.000121557
7 *40:8 *119:10 1.92931e-05
8 *40:8 *119:75 6.37438e-05
9 *416:A *40:8 0.00034946
*RES
1 *415:X *40:8 43.075 
2 *40:8 *416:B 38.6214 
*END

*D_NET *41 0.00388481
*CONN
*I *423:A1 I *D sky130_fd_sc_hd__a21o_1
*I *416:X O *D sky130_fd_sc_hd__or2_1
*CAP
1 *423:A1 0
2 *416:X 0.000187492
3 *41:14 0.00050383
4 *41:8 0.000691322
5 *41:8 *60:88 0.000182826
6 *41:8 *92:32 5.3304e-05
7 *41:8 *112:35 0.000426329
8 *41:8 *128:96 2.81066e-05
9 *41:14 *381:B2 0.000241919
10 *41:14 *44:40 0.000665345
11 *41:14 *47:26 3.8315e-05
12 *41:14 *53:33 0.000537815
13 *41:14 *132:71 1.09903e-05
14 *41:14 *139:24 0.000228027
15 *41:14 *139:28 8.34283e-06
16 *39:32 *41:14 8.08491e-05
*RES
1 *416:X *41:8 42.9093 
2 *41:8 *41:14 29.3757 
3 *41:14 *423:A1 23 
*END

*D_NET *42 0.0174985
*CONN
*I *431:B I *D sky130_fd_sc_hd__or3_4
*I *430:A2 I *D sky130_fd_sc_hd__o21ai_1
*I *418:B I *D sky130_fd_sc_hd__nor2_1
*I *417:X O *D sky130_fd_sc_hd__o311a_4
*CAP
1 *431:B 0
2 *430:A2 0.000225904
3 *418:B 0
4 *417:X 0.000370388
5 *42:74 0.00166504
6 *42:30 0.000778625
7 *42:20 0.00201529
8 *42:8 0.00304619
9 *430:A2 *429:A 4.49877e-05
10 *430:A2 *430:B1 5.3304e-05
11 *430:A2 *52:26 3.72204e-05
12 *430:A2 *71:40 7.57281e-06
13 *430:A2 *85:24 2.05503e-05
14 *430:A2 *102:26 4.63878e-05
15 *430:A2 *132:71 4.51815e-05
16 *42:8 *119:75 4.30894e-05
17 *42:8 *124:40 0.000442895
18 *42:20 *62:26 0.000118405
19 *42:20 *84:24 4.51815e-05
20 *42:20 *92:32 0.00031924
21 *42:20 *102:26 5.64121e-05
22 *42:20 *106:32 0.00116679
23 *42:20 *119:10 0.000218181
24 *42:20 *119:20 2.05503e-05
25 *42:20 *119:75 0.000149063
26 *42:20 *124:27 9.40202e-05
27 *42:20 *124:40 0.000308907
28 *42:20 *132:36 0.000199828
29 *42:20 *132:50 6.87787e-05
30 *42:20 *141:18 4.6719e-05
31 *42:30 *46:22 0.000137825
32 *42:30 *52:26 2.69209e-05
33 *42:30 *63:30 8.22421e-06
34 *42:30 *63:34 0.000207902
35 *42:30 *63:36 0.000397501
36 *42:30 *64:74 0.000226899
37 *42:30 *65:34 1.1595e-05
38 *42:30 *102:10 1.9184e-05
39 *42:30 *102:26 0.000229658
40 *42:30 *119:40 0.000442233
41 *42:30 *150:34 0
42 *42:30 *155:48 0.0001495
43 *42:74 *411:A2 0.000125466
44 *42:74 *53:39 1.2878e-05
45 *42:74 *75:26 0.000699704
46 *42:74 *79:20 0.000666009
47 *42:74 *88:19 4.67488e-05
48 *42:74 *88:31 3.39102e-05
49 *42:74 *88:46 2.31687e-05
50 *42:74 *93:18 6.25852e-05
51 *42:74 *113:24 0.00017236
52 *42:74 *121:61 0.000227113
53 *42:74 *128:79 0.000963269
54 *42:74 *129:124 0.00061377
55 *42:74 *131:64 0.000139238
56 *42:74 *131:74 0.000151518
57 *42:74 *138:8 3.7681e-05
58 *42:74 *155:18 4.98718e-06
59 *416:A *42:8 0
60 *417:B1 *42:8 0
61 *40:8 *42:8 5.96346e-06
*RES
1 *417:X *42:8 44.6596 
2 *42:8 *42:20 32.8537 
3 *42:20 *42:30 33.6445 
4 *42:30 *418:B 23 
5 *42:20 *430:A2 48.166 
6 *42:8 *42:74 43.2175 
7 *42:74 *431:B 23 
*END

*D_NET *43 0.00585067
*CONN
*I *423:A2 I *D sky130_fd_sc_hd__a21o_1
*I *418:Y O *D sky130_fd_sc_hd__nor2_1
*CAP
1 *423:A2 0
2 *418:Y 0.000249445
3 *43:20 0.0014588
4 *43:10 0.00170824
5 *43:10 *414:A2 4.10891e-05
6 *43:10 *56:24 1.72627e-05
7 *43:10 *59:10 9.7954e-05
8 *43:10 *63:36 3.26241e-05
9 *43:10 *123:20 0.000113909
10 *43:10 *155:38 0.000105076
11 *43:10 *155:48 0.000154302
12 *43:20 *45:12 0.000256347
13 *43:20 *52:26 0.000255865
14 *43:20 *53:33 1.56403e-05
15 *43:20 *67:24 9.52161e-06
16 *43:20 *78:10 7.57281e-06
17 *43:20 *78:23 3.41998e-06
18 *43:20 *78:33 1.07719e-05
19 *43:20 *78:96 1.10908e-05
20 *43:20 *97:12 7.47789e-05
21 *43:20 *113:24 0.0008696
22 *43:20 *119:40 7.7213e-05
23 *43:20 *132:36 0.000127629
24 *43:20 *132:71 8.1278e-05
25 *43:20 *155:38 7.12426e-05
*RES
1 *418:Y *43:10 43.1682 
2 *43:10 *43:20 34.7259 
3 *43:20 *423:A2 23 
*END

*D_NET *44 0.0100972
*CONN
*I *420:B2 I *D sky130_fd_sc_hd__o22a_1
*I *419:Y O *D sky130_fd_sc_hd__a21oi_1
*CAP
1 *420:B2 0
2 *419:Y 0.000634615
3 *44:40 0.000462499
4 *44:28 0.00196854
5 *44:16 0.00214066
6 *44:16 *67:24 0.000317953
7 *44:16 *78:62 9.24587e-05
8 *44:16 *129:43 8.47328e-05
9 *44:16 *130:28 4.51815e-05
10 *44:16 *140:12 8.76318e-05
11 *44:16 *141:10 7.02639e-05
12 *44:16 *152:58 2.59348e-05
13 *44:16 *152:91 7.02639e-05
14 *44:28 *347:C 2.05503e-05
15 *44:28 *404:A1 0.000137361
16 *44:28 *53:33 2.24704e-05
17 *44:28 *57:28 0.00010554
18 *44:28 *62:26 5.31675e-05
19 *44:28 *67:24 1.41608e-05
20 *44:28 *70:20 2.05503e-05
21 *44:28 *84:24 0.00015459
22 *44:28 *94:37 2.28834e-05
23 *44:28 *121:42 0.000251225
24 *44:28 *126:44 0.00102936
25 *44:28 *129:43 6.10151e-05
26 *44:28 *129:72 0.000674642
27 *44:28 *139:24 3.01315e-05
28 *44:28 *151:75 3.74463e-05
29 *44:28 *155:77 6.47885e-05
30 *44:40 *420:B1 5.3304e-05
31 *44:40 *45:12 2.26406e-05
32 *44:40 *47:26 0.000135037
33 *44:40 *70:20 6.47736e-05
34 *44:40 *78:23 5.20749e-05
35 *44:40 *132:71 6.23655e-05
36 *44:40 *134:106 2.7775e-05
37 *44:40 *139:24 0.000313215
38 *41:14 *44:40 0.000665345
*RES
1 *419:Y *44:16 48.4776 
2 *44:16 *44:28 44.537 
3 *44:28 *44:40 27.1386 
4 *44:40 *420:B2 23 
*END

*D_NET *45 0.00531848