* NGSPICE file created from top.ext - technology: sky130A

* Black-box entry subcircuit for sky130_fd_sc_hd__decap_8 abstract view
.subckt sky130_fd_sc_hd__decap_8 VGND VNB VPB VPWR
.ends

* Black-box entry subcircuit for sky130_fd_sc_hd__mux2_1 abstract view
.subckt sky130_fd_sc_hd__mux2_1 A0 A1 S VGND VNB VPB VPWR X
.ends

* Black-box entry subcircuit for sky130_fd_sc_hd__buf_4 abstract view
.subckt sky130_fd_sc_hd__buf_4 A VGND VNB VPB VPWR X
.ends

* Black-box entry subcircuit for sky130_fd_sc_hd__clkbuf_1 abstract view
.subckt sky130_fd_sc_hd__clkbuf_1 A VGND VNB VPB VPWR X
.ends

* Black-box entry subcircuit for sky130_fd_sc_hd__fill_1 abstract view
.subckt sky130_fd_sc_hd__fill_1 VGND VNB VPB VPWR
.ends

* Black-box entry subcircuit for sky130_fd_sc_hd__tapvpwrvgnd_1 abstract view
.subckt sky130_fd_sc_hd__tapvpwrvgnd_1 VGND VPWR
.ends

* Black-box entry subcircuit for sky130_fd_sc_hd__decap_4 abstract view
.subckt sky130_fd_sc_hd__decap_4 VGND VNB VPB VPWR
.ends

* Black-box entry subcircuit for sky130_fd_sc_hd__nor2_2 abstract view
.subckt sky130_fd_sc_hd__nor2_2 A B VGND VNB VPB VPWR Y
.ends

* Black-box entry subcircuit for sky130_fd_sc_hd__decap_3 abstract view
.subckt sky130_fd_sc_hd__decap_3 VGND VNB VPB VPWR
.ends

* Black-box entry subcircuit for sky130_fd_sc_hd__dfxtp_1 abstract view
.subckt sky130_fd_sc_hd__dfxtp_1 CLK D VGND VNB VPB VPWR Q
.ends

* Black-box entry subcircuit for sky130_fd_sc_hd__nand2_4 abstract view
.subckt sky130_fd_sc_hd__nand2_4 A B VGND VNB VPB VPWR Y
.ends

* Black-box entry subcircuit for sky130_fd_sc_hd__nor2_1 abstract view
.subckt sky130_fd_sc_hd__nor2_1 A B VGND VNB VPB VPWR Y
.ends

* Black-box entry subcircuit for sky130_fd_sc_hd__a21oi_1 abstract view
.subckt sky130_fd_sc_hd__a21oi_1 A1 A2 B1 VGND VNB VPB VPWR Y
.ends

* Black-box entry subcircuit for sky130_fd_sc_hd__or2_1 abstract view
.subckt sky130_fd_sc_hd__or2_1 A B VGND VNB VPB VPWR X
.ends

* Black-box entry subcircuit for sky130_fd_sc_hd__dlygate4sd3_1 abstract view
.subckt sky130_fd_sc_hd__dlygate4sd3_1 A VGND VNB VPB VPWR X
.ends

* Black-box entry subcircuit for sky130_ef_sc_hd__decap_12 abstract view
.subckt sky130_ef_sc_hd__decap_12 VPWR VGND VPB VNB
.ends

* Black-box entry subcircuit for sky130_fd_sc_hd__decap_6 abstract view
.subckt sky130_fd_sc_hd__decap_6 VGND VNB VPB VPWR
.ends

* Black-box entry subcircuit for sky130_fd_sc_hd__fill_2 abstract view
.subckt sky130_fd_sc_hd__fill_2 VGND VNB VPB VPWR
.ends

* Black-box entry subcircuit for sky130_fd_sc_hd__dlygate4sd1_1 abstract view
.subckt sky130_fd_sc_hd__dlygate4sd1_1 A VGND VNB VPB VPWR X
.ends

* Black-box entry subcircuit for sky130_fd_sc_hd__clkbuf_8 abstract view
.subckt sky130_fd_sc_hd__clkbuf_8 A VGND VNB VPB VPWR X
.ends

* Black-box entry subcircuit for sky130_fd_sc_hd__mux4_1 abstract view
.subckt sky130_fd_sc_hd__mux4_1 A0 A1 A2 A3 S0 S1 VGND VNB VPB VPWR X
.ends

* Black-box entry subcircuit for sky130_fd_sc_hd__buf_2 abstract view
.subckt sky130_fd_sc_hd__buf_2 A VGND VNB VPB VPWR X
.ends

* Black-box entry subcircuit for sky130_fd_sc_hd__mux2_2 abstract view
.subckt sky130_fd_sc_hd__mux2_2 A0 A1 S VGND VNB VPB VPWR X
.ends

* Black-box entry subcircuit for sky130_fd_sc_hd__o21ba_1 abstract view
.subckt sky130_fd_sc_hd__o21ba_1 A1 A2 B1_N VGND VNB VPB VPWR X
.ends

* Black-box entry subcircuit for sky130_fd_sc_hd__and2_1 abstract view
.subckt sky130_fd_sc_hd__and2_1 A B VGND VNB VPB VPWR X
.ends

* Black-box entry subcircuit for sky130_fd_sc_hd__o21a_1 abstract view
.subckt sky130_fd_sc_hd__o21a_1 A1 A2 B1 VGND VNB VPB VPWR X
.ends

* Black-box entry subcircuit for sky130_fd_sc_hd__inv_8 abstract view
.subckt sky130_fd_sc_hd__inv_8 A VGND VNB VPB VPWR Y
.ends

* Black-box entry subcircuit for sky130_fd_sc_hd__a21o_1 abstract view
.subckt sky130_fd_sc_hd__a21o_1 A1 A2 B1 VGND VNB VPB VPWR X
.ends

* Black-box entry subcircuit for sky130_fd_sc_hd__a221o_1 abstract view
.subckt sky130_fd_sc_hd__a221o_1 A1 A2 B1 B2 C1 VGND VNB VPB VPWR X
.ends

* Black-box entry subcircuit for sky130_fd_sc_hd__xor2_2 abstract view
.subckt sky130_fd_sc_hd__xor2_2 A B VGND VNB VPB VPWR X
.ends

* Black-box entry subcircuit for sky130_fd_sc_hd__or3_1 abstract view
.subckt sky130_fd_sc_hd__or3_1 A B C VGND VNB VPB VPWR X
.ends

* Black-box entry subcircuit for sky130_fd_sc_hd__a21oi_2 abstract view
.subckt sky130_fd_sc_hd__a21oi_2 A1 A2 B1 VGND VNB VPB VPWR Y
.ends

* Black-box entry subcircuit for sky130_fd_sc_hd__diode_2 abstract view
.subckt sky130_fd_sc_hd__diode_2 DIODE VGND VNB VPB VPWR
.ends

* Black-box entry subcircuit for sky130_fd_sc_hd__or2b_1 abstract view
.subckt sky130_fd_sc_hd__or2b_1 A B_N VGND VNB VPB VPWR X
.ends

* Black-box entry subcircuit for sky130_fd_sc_hd__a31o_1 abstract view
.subckt sky130_fd_sc_hd__a31o_1 A1 A2 A3 B1 VGND VNB VPB VPWR X
.ends

* Black-box entry subcircuit for sky130_fd_sc_hd__clkbuf_4 abstract view
.subckt sky130_fd_sc_hd__clkbuf_4 A VGND VNB VPB VPWR X
.ends

* Black-box entry subcircuit for sky130_fd_sc_hd__a32o_2 abstract view
.subckt sky130_fd_sc_hd__a32o_2 A1 A2 A3 B1 B2 VGND VNB VPB VPWR X
.ends

* Black-box entry subcircuit for sky130_fd_sc_hd__o22a_2 abstract view
.subckt sky130_fd_sc_hd__o22a_2 A1 A2 B1 B2 VGND VNB VPB VPWR X
.ends

* Black-box entry subcircuit for sky130_fd_sc_hd__or3b_2 abstract view
.subckt sky130_fd_sc_hd__or3b_2 A B C_N VGND VNB VPB VPWR X
.ends

* Black-box entry subcircuit for sky130_fd_sc_hd__xnor2_1 abstract view
.subckt sky130_fd_sc_hd__xnor2_1 A B VGND VNB VPB VPWR Y
.ends

* Black-box entry subcircuit for sky130_fd_sc_hd__o21ai_1 abstract view
.subckt sky130_fd_sc_hd__o21ai_1 A1 A2 B1 VGND VNB VPB VPWR Y
.ends

* Black-box entry subcircuit for sky130_fd_sc_hd__and2b_1 abstract view
.subckt sky130_fd_sc_hd__and2b_1 A_N B VGND VNB VPB VPWR X
.ends

* Black-box entry subcircuit for sky130_fd_sc_hd__nand2_1 abstract view
.subckt sky130_fd_sc_hd__nand2_1 A B VGND VNB VPB VPWR Y
.ends

* Black-box entry subcircuit for sky130_fd_sc_hd__buf_6 abstract view
.subckt sky130_fd_sc_hd__buf_6 A VGND VNB VPB VPWR X
.ends

* Black-box entry subcircuit for sky130_fd_sc_hd__o311a_1 abstract view
.subckt sky130_fd_sc_hd__o311a_1 A1 A2 A3 B1 C1 VGND VNB VPB VPWR X
.ends

* Black-box entry subcircuit for sky130_fd_sc_hd__o22a_1 abstract view
.subckt sky130_fd_sc_hd__o22a_1 A1 A2 B1 B2 VGND VNB VPB VPWR X
.ends

* Black-box entry subcircuit for sky130_fd_sc_hd__inv_6 abstract view
.subckt sky130_fd_sc_hd__inv_6 A VGND VNB VPB VPWR Y
.ends

* Black-box entry subcircuit for sky130_fd_sc_hd__clkbuf_2 abstract view
.subckt sky130_fd_sc_hd__clkbuf_2 A VGND VNB VPB VPWR X
.ends

* Black-box entry subcircuit for sky130_fd_sc_hd__bufinv_16 abstract view
.subckt sky130_fd_sc_hd__bufinv_16 A VGND VNB VPB VPWR Y
.ends

* Black-box entry subcircuit for sky130_fd_sc_hd__xnor2_2 abstract view
.subckt sky130_fd_sc_hd__xnor2_2 A B VGND VNB VPB VPWR Y
.ends

* Black-box entry subcircuit for sky130_fd_sc_hd__inv_2 abstract view
.subckt sky130_fd_sc_hd__inv_2 A VGND VNB VPB VPWR Y
.ends

* Black-box entry subcircuit for sky130_fd_sc_hd__buf_12 abstract view
.subckt sky130_fd_sc_hd__buf_12 A VGND VNB VPB VPWR X
.ends

* Black-box entry subcircuit for sky130_fd_sc_hd__xor2_1 abstract view
.subckt sky130_fd_sc_hd__xor2_1 A B VGND VNB VPB VPWR X
.ends

* Black-box entry subcircuit for sky130_fd_sc_hd__mux4_2 abstract view
.subckt sky130_fd_sc_hd__mux4_2 A0 A1 A2 A3 S0 S1 VGND VNB VPB VPWR X
.ends

* Black-box entry subcircuit for sky130_fd_sc_hd__and4_1 abstract view
.subckt sky130_fd_sc_hd__and4_1 A B C D VGND VNB VPB VPWR X
.ends

* Black-box entry subcircuit for sky130_fd_sc_hd__o21ai_4 abstract view
.subckt sky130_fd_sc_hd__o21ai_4 A1 A2 B1 VGND VNB VPB VPWR Y
.ends

* Black-box entry subcircuit for sky130_fd_sc_hd__clkinvlp_4 abstract view
.subckt sky130_fd_sc_hd__clkinvlp_4 A VGND VNB VPB VPWR Y
.ends

* Black-box entry subcircuit for sky130_fd_sc_hd__o211a_1 abstract view
.subckt sky130_fd_sc_hd__o211a_1 A1 A2 B1 C1 VGND VNB VPB VPWR X
.ends

* Black-box entry subcircuit for sky130_fd_sc_hd__clkbuf_16 abstract view
.subckt sky130_fd_sc_hd__clkbuf_16 A VGND VNB VPB VPWR X
.ends

* Black-box entry subcircuit for sky130_fd_sc_hd__clkinv_4 abstract view
.subckt sky130_fd_sc_hd__clkinv_4 A VGND VNB VPB VPWR Y
.ends

* Black-box entry subcircuit for sky130_fd_sc_hd__clkinv_1 abstract view
.subckt sky130_fd_sc_hd__clkinv_1 A VGND VNB VPB VPWR Y
.ends

* Black-box entry subcircuit for sky130_fd_sc_hd__clkinvlp_2 abstract view
.subckt sky130_fd_sc_hd__clkinvlp_2 A VGND VNB VPB VPWR Y
.ends

* Black-box entry subcircuit for sky130_fd_sc_hd__o41a_1 abstract view
.subckt sky130_fd_sc_hd__o41a_1 A1 A2 A3 A4 B1 VGND VNB VPB VPWR X
.ends

* Black-box entry subcircuit for sky130_fd_sc_hd__nor2_4 abstract view
.subckt sky130_fd_sc_hd__nor2_4 A B VGND VNB VPB VPWR Y
.ends

* Black-box entry subcircuit for sky130_fd_sc_hd__o32a_1 abstract view
.subckt sky130_fd_sc_hd__o32a_1 A1 A2 A3 B1 B2 VGND VNB VPB VPWR X
.ends

* Black-box entry subcircuit for sky130_fd_sc_hd__a21bo_1 abstract view
.subckt sky130_fd_sc_hd__a21bo_1 A1 A2 B1_N VGND VNB VPB VPWR X
.ends

* Black-box entry subcircuit for sky130_fd_sc_hd__a22o_1 abstract view
.subckt sky130_fd_sc_hd__a22o_1 A1 A2 B1 B2 VGND VNB VPB VPWR X
.ends

* Black-box entry subcircuit for sky130_fd_sc_hd__o2bb2a_2 abstract view
.subckt sky130_fd_sc_hd__o2bb2a_2 A1_N A2_N B1 B2 VGND VNB VPB VPWR X
.ends

* Black-box entry subcircuit for sky130_fd_sc_hd__or2_2 abstract view
.subckt sky130_fd_sc_hd__or2_2 A B VGND VNB VPB VPWR X
.ends

* Black-box entry subcircuit for sky130_fd_sc_hd__o21ai_2 abstract view
.subckt sky130_fd_sc_hd__o21ai_2 A1 A2 B1 VGND VNB VPB VPWR Y
.ends

* Black-box entry subcircuit for sky130_fd_sc_hd__a32oi_4 abstract view
.subckt sky130_fd_sc_hd__a32oi_4 A1 A2 A3 B1 B2 VGND VNB VPB VPWR Y
.ends

* Black-box entry subcircuit for sky130_fd_sc_hd__o21a_2 abstract view
.subckt sky130_fd_sc_hd__o21a_2 A1 A2 B1 VGND VNB VPB VPWR X
.ends

* Black-box entry subcircuit for sky130_fd_sc_hd__clkinv_8 abstract view
.subckt sky130_fd_sc_hd__clkinv_8 A VGND VNB VPB VPWR Y
.ends

* Black-box entry subcircuit for sky130_fd_sc_hd__a2bb2o_2 abstract view
.subckt sky130_fd_sc_hd__a2bb2o_2 A1_N A2_N B1 B2 VGND VNB VPB VPWR X
.ends

* Black-box entry subcircuit for sky130_fd_sc_hd__nor2b_4 abstract view
.subckt sky130_fd_sc_hd__nor2b_4 A B_N VGND VNB VPB VPWR Y
.ends

* Black-box entry subcircuit for sky130_fd_sc_hd__nand2_2 abstract view
.subckt sky130_fd_sc_hd__nand2_2 A B VGND VNB VPB VPWR Y
.ends

* Black-box entry subcircuit for sky130_fd_sc_hd__and3_1 abstract view
.subckt sky130_fd_sc_hd__and3_1 A B C VGND VNB VPB VPWR X
.ends

* Black-box entry subcircuit for sky130_fd_sc_hd__o221a_1 abstract view
.subckt sky130_fd_sc_hd__o221a_1 A1 A2 B1 B2 C1 VGND VNB VPB VPWR X
.ends

* Black-box entry subcircuit for sky130_fd_sc_hd__mux2_4 abstract view
.subckt sky130_fd_sc_hd__mux2_4 A0 A1 S VGND VNB VPB VPWR X
.ends

* Black-box entry subcircuit for sky130_fd_sc_hd__a211o_1 abstract view
.subckt sky130_fd_sc_hd__a211o_1 A1 A2 B1 C1 VGND VNB VPB VPWR X
.ends

* Black-box entry subcircuit for sky130_fd_sc_hd__a21oi_4 abstract view
.subckt sky130_fd_sc_hd__a21oi_4 A1 A2 B1 VGND VNB VPB VPWR Y
.ends

* Black-box entry subcircuit for sky130_fd_sc_hd__a2bb2o_4 abstract view
.subckt sky130_fd_sc_hd__a2bb2o_4 A1_N A2_N B1 B2 VGND VNB VPB VPWR X
.ends

* Black-box entry subcircuit for sky130_fd_sc_hd__or3b_1 abstract view
.subckt sky130_fd_sc_hd__or3b_1 A B C_N VGND VNB VPB VPWR X
.ends

* Black-box entry subcircuit for sky130_fd_sc_hd__a2bb2o_1 abstract view
.subckt sky130_fd_sc_hd__a2bb2o_1 A1_N A2_N B1 B2 VGND VNB VPB VPWR X
.ends

* Black-box entry subcircuit for sky130_fd_sc_hd__and4b_1 abstract view
.subckt sky130_fd_sc_hd__and4b_1 A_N B C D VGND VNB VPB VPWR X
.ends

* Black-box entry subcircuit for sky130_fd_sc_hd__nand3_1 abstract view
.subckt sky130_fd_sc_hd__nand3_1 A B C VGND VNB VPB VPWR Y
.ends

* Black-box entry subcircuit for sky130_fd_sc_hd__o22ai_1 abstract view
.subckt sky130_fd_sc_hd__o22ai_1 A1 A2 B1 B2 VGND VNB VPB VPWR Y
.ends

* Black-box entry subcircuit for sky130_fd_sc_hd__o221a_4 abstract view
.subckt sky130_fd_sc_hd__o221a_4 A1 A2 B1 B2 C1 VGND VNB VPB VPWR X
.ends

* Black-box entry subcircuit for sky130_fd_sc_hd__o31ai_1 abstract view
.subckt sky130_fd_sc_hd__o31ai_1 A1 A2 A3 B1 VGND VNB VPB VPWR Y
.ends

* Black-box entry subcircuit for sky130_fd_sc_hd__or3b_4 abstract view
.subckt sky130_fd_sc_hd__or3b_4 A B C_N VGND VNB VPB VPWR X
.ends

* Black-box entry subcircuit for sky130_fd_sc_hd__o31a_1 abstract view
.subckt sky130_fd_sc_hd__o31a_1 A1 A2 A3 B1 VGND VNB VPB VPWR X
.ends

* Black-box entry subcircuit for sky130_fd_sc_hd__buf_8 abstract view
.subckt sky130_fd_sc_hd__buf_8 A VGND VNB VPB VPWR X
.ends

* Black-box entry subcircuit for sky130_fd_sc_hd__and3b_1 abstract view
.subckt sky130_fd_sc_hd__and3b_1 A_N B C VGND VNB VPB VPWR X
.ends

* Black-box entry subcircuit for sky130_fd_sc_hd__inv_16 abstract view
.subckt sky130_fd_sc_hd__inv_16 A VGND VNB VPB VPWR Y
.ends

* Black-box entry subcircuit for sky130_fd_sc_hd__a22oi_2 abstract view
.subckt sky130_fd_sc_hd__a22oi_2 A1 A2 B1 B2 VGND VNB VPB VPWR Y
.ends

* Black-box entry subcircuit for sky130_fd_sc_hd__o21bai_1 abstract view
.subckt sky130_fd_sc_hd__o21bai_1 A1 A2 B1_N VGND VNB VPB VPWR Y
.ends

* Black-box entry subcircuit for sky130_fd_sc_hd__a41o_1 abstract view
.subckt sky130_fd_sc_hd__a41o_1 A1 A2 A3 A4 B1 VGND VNB VPB VPWR X
.ends

* Black-box entry subcircuit for sky130_fd_sc_hd__a31oi_1 abstract view
.subckt sky130_fd_sc_hd__a31oi_1 A1 A2 A3 B1 VGND VNB VPB VPWR Y
.ends

* Black-box entry subcircuit for sky130_fd_sc_hd__nand4_2 abstract view
.subckt sky130_fd_sc_hd__nand4_2 A B C D VGND VNB VPB VPWR Y
.ends

* Black-box entry subcircuit for sky130_fd_sc_hd__dlymetal6s2s_1 abstract view
.subckt sky130_fd_sc_hd__dlymetal6s2s_1 A VGND VNB VPB VPWR X
.ends

* Black-box entry subcircuit for sky130_fd_sc_hd__o2bb2a_1 abstract view
.subckt sky130_fd_sc_hd__o2bb2a_1 A1_N A2_N B1 B2 VGND VNB VPB VPWR X
.ends

* Black-box entry subcircuit for sky130_fd_sc_hd__buf_1 abstract view
.subckt sky130_fd_sc_hd__buf_1 A VGND VNB VPB VPWR X
.ends

* Black-box entry subcircuit for sky130_fd_sc_hd__and2_2 abstract view
.subckt sky130_fd_sc_hd__and2_2 A B VGND VNB VPB VPWR X
.ends

* Black-box entry subcircuit for sky130_fd_sc_hd__a21boi_1 abstract view
.subckt sky130_fd_sc_hd__a21boi_1 A1 A2 B1_N VGND VNB VPB VPWR Y
.ends

* Black-box entry subcircuit for sky130_fd_sc_hd__and3_4 abstract view
.subckt sky130_fd_sc_hd__and3_4 A B C VGND VNB VPB VPWR X
.ends

* Black-box entry subcircuit for sky130_fd_sc_hd__or3_4 abstract view
.subckt sky130_fd_sc_hd__or3_4 A B C VGND VNB VPB VPWR X
.ends

* Black-box entry subcircuit for sky130_fd_sc_hd__o22a_4 abstract view
.subckt sky130_fd_sc_hd__o22a_4 A1 A2 B1 B2 VGND VNB VPB VPWR X
.ends

* Black-box entry subcircuit for sky130_fd_sc_hd__and3b_4 abstract view
.subckt sky130_fd_sc_hd__and3b_4 A_N B C VGND VNB VPB VPWR X
.ends

* Black-box entry subcircuit for sky130_fd_sc_hd__or4_4 abstract view
.subckt sky130_fd_sc_hd__or4_4 A B C D VGND VNB VPB VPWR X
.ends

* Black-box entry subcircuit for sky130_fd_sc_hd__a32o_1 abstract view
.subckt sky130_fd_sc_hd__a32o_1 A1 A2 A3 B1 B2 VGND VNB VPB VPWR X
.ends

* Black-box entry subcircuit for sky130_fd_sc_hd__o2bb2a_4 abstract view
.subckt sky130_fd_sc_hd__o2bb2a_4 A1_N A2_N B1 B2 VGND VNB VPB VPWR X
.ends

* Black-box entry subcircuit for sky130_fd_sc_hd__o211ai_2 abstract view
.subckt sky130_fd_sc_hd__o211ai_2 A1 A2 B1 C1 VGND VNB VPB VPWR Y
.ends

* Black-box entry subcircuit for sky130_fd_sc_hd__or4b_4 abstract view
.subckt sky130_fd_sc_hd__or4b_4 A B C D_N VGND VNB VPB VPWR X
.ends

* Black-box entry subcircuit for sky130_fd_sc_hd__a311o_1 abstract view
.subckt sky130_fd_sc_hd__a311o_1 A1 A2 A3 B1 C1 VGND VNB VPB VPWR X
.ends

* Black-box entry subcircuit for sky130_fd_sc_hd__or4_1 abstract view
.subckt sky130_fd_sc_hd__or4_1 A B C D VGND VNB VPB VPWR X
.ends

* Black-box entry subcircuit for sky130_fd_sc_hd__or2_4 abstract view
.subckt sky130_fd_sc_hd__or2_4 A B VGND VNB VPB VPWR X
.ends

* Black-box entry subcircuit for sky130_fd_sc_hd__nand3b_1 abstract view
.subckt sky130_fd_sc_hd__nand3b_1 A_N B C VGND VNB VPB VPWR Y
.ends

* Black-box entry subcircuit for sky130_fd_sc_hd__a21o_4 abstract view
.subckt sky130_fd_sc_hd__a21o_4 A1 A2 B1 VGND VNB VPB VPWR X
.ends

* Black-box entry subcircuit for sky130_fd_sc_hd__nand2b_4 abstract view
.subckt sky130_fd_sc_hd__nand2b_4 A_N B VGND VNB VPB VPWR Y
.ends

* Black-box entry subcircuit for sky130_fd_sc_hd__and2_4 abstract view
.subckt sky130_fd_sc_hd__and2_4 A B VGND VNB VPB VPWR X
.ends

* Black-box entry subcircuit for sky130_fd_sc_hd__o21a_4 abstract view
.subckt sky130_fd_sc_hd__o21a_4 A1 A2 B1 VGND VNB VPB VPWR X
.ends

* Black-box entry subcircuit for sky130_fd_sc_hd__and3b_2 abstract view
.subckt sky130_fd_sc_hd__and3b_2 A_N B C VGND VNB VPB VPWR X
.ends

* Black-box entry subcircuit for sky130_fd_sc_hd__a221oi_2 abstract view
.subckt sky130_fd_sc_hd__a221oi_2 A1 A2 B1 B2 C1 VGND VNB VPB VPWR Y
.ends

* Black-box entry subcircuit for sky130_fd_sc_hd__or3_2 abstract view
.subckt sky130_fd_sc_hd__or3_2 A B C VGND VNB VPB VPWR X
.ends

* Black-box entry subcircuit for sky130_fd_sc_hd__nand3b_4 abstract view
.subckt sky130_fd_sc_hd__nand3b_4 A_N B C VGND VNB VPB VPWR Y
.ends

* Black-box entry subcircuit for sky130_fd_sc_hd__nand3_2 abstract view
.subckt sky130_fd_sc_hd__nand3_2 A B C VGND VNB VPB VPWR Y
.ends

* Black-box entry subcircuit for sky130_fd_sc_hd__nor2b_2 abstract view
.subckt sky130_fd_sc_hd__nor2b_2 A B_N VGND VNB VPB VPWR Y
.ends

* Black-box entry subcircuit for sky130_fd_sc_hd__dlymetal6s4s_1 abstract view
.subckt sky130_fd_sc_hd__dlymetal6s4s_1 A VGND VNB VPB VPWR X
.ends

.subckt top A1[0] A1[1] A1[2] A1[3] A1[4] A2[0] A2[1] A2[2] A2[3] A2[4] A3[0] A3[1]
+ A3[2] A3[3] A3[4] ALUOp[0] ALUOp[1] ALUResult[0] ALUResult[10] ALUResult[11] ALUResult[12]
+ ALUResult[13] ALUResult[14] ALUResult[15] ALUResult[16] ALUResult[17] ALUResult[18]
+ ALUResult[19] ALUResult[1] ALUResult[20] ALUResult[21] ALUResult[22] ALUResult[23]
+ ALUResult[24] ALUResult[25] ALUResult[26] ALUResult[27] ALUResult[28] ALUResult[29]
+ ALUResult[2] ALUResult[30] ALUResult[31] ALUResult[3] ALUResult[4] ALUResult[5]
+ ALUResult[6] ALUResult[7] ALUResult[8] ALUResult[9] CLK VGND VPWR WD3[0] WD3[10]
+ WD3[11] WD3[12] WD3[13] WD3[14] WD3[15] WD3[16] WD3[17] WD3[18] WD3[19] WD3[1] WD3[20]
+ WD3[21] WD3[22] WD3[23] WD3[24] WD3[25] WD3[26] WD3[27] WD3[28] WD3[29] WD3[2] WD3[30]
+ WD3[31] WD3[3] WD3[4] WD3[5] WD3[6] WD3[7] WD3[8] WD3[9] WE3
XFILLER_0_118_95 VGND VGND VPWR VPWR sky130_fd_sc_hd__decap_8
X_7963_ _3013_ net791 _3938_ VGND VGND VPWR VPWR _3948_ sky130_fd_sc_hd__mux2_1
XFILLER_0_89_472 VGND VGND VPWR VPWR sky130_fd_sc_hd__decap_8
X_6914_ _3375_ VGND VGND VPWR VPWR _3376_ sky130_fd_sc_hd__buf_4
X_7894_ _3911_ VGND VGND VPWR VPWR _0434_ sky130_fd_sc_hd__clkbuf_1
XFILLER_0_77_656 VGND VGND VPWR VPWR sky130_fd_sc_hd__fill_1
XTAP_TAPCELL_ROW_25_618 VGND VPWR sky130_fd_sc_hd__tapvpwrvgnd_1
XFILLER_0_77_678 VGND VGND VPWR VPWR sky130_fd_sc_hd__decap_4
X_6845_ _3005_ _3338_ VGND VGND VPWR VPWR _3339_ sky130_fd_sc_hd__nor2_2
XFILLER_0_18_701 VGND VGND VPWR VPWR sky130_fd_sc_hd__decap_3
XFILLER_0_92_659 VGND VGND VPWR VPWR sky130_fd_sc_hd__fill_1
X_9564_ clknet_leaf_14_CLK _0724_ VGND VGND VPWR VPWR regfile.registers\[11\]\[30\]
+ sky130_fd_sc_hd__dfxtp_1
X_6776_ _3153_ _3229_ VGND VGND VPWR VPWR _3302_ sky130_fd_sc_hd__nand2_4
X_9495_ clknet_leaf_36_CLK _0655_ VGND VGND VPWR VPWR regfile.registers\[16\]\[25\]
+ sky130_fd_sc_hd__dfxtp_1
X_5727_ _2062_ _2479_ VGND VGND VPWR VPWR _2480_ sky130_fd_sc_hd__nor2_1
X_8515_ _4240_ VGND VGND VPWR VPWR _0726_ sky130_fd_sc_hd__clkbuf_1
XFILLER_0_115_430 VGND VGND VPWR VPWR sky130_fd_sc_hd__fill_1
X_8446_ _3003_ _3447_ VGND VGND VPWR VPWR _4204_ sky130_fd_sc_hd__nor2_2
X_5658_ _2410_ _2412_ _2097_ VGND VGND VPWR VPWR _2413_ sky130_fd_sc_hd__a21oi_1
XFILLER_0_60_545 VGND VGND VPWR VPWR sky130_fd_sc_hd__fill_1
X_4609_ _1254_ _1364_ VGND VGND VPWR VPWR _1365_ sky130_fd_sc_hd__nor2_1
X_5589_ _1799_ _2141_ VGND VGND VPWR VPWR _2344_ sky130_fd_sc_hd__or2_1
X_8377_ _4167_ VGND VGND VPWR VPWR _0661_ sky130_fd_sc_hd__clkbuf_1
XFILLER_0_60_589 VGND VGND VPWR VPWR sky130_fd_sc_hd__decap_3
Xhold340 regfile.registers\[18\]\[30\] VGND VGND VPWR VPWR net420 sky130_fd_sc_hd__dlygate4sd3_1
Xhold351 regfile.registers\[12\]\[16\] VGND VGND VPWR VPWR net431 sky130_fd_sc_hd__dlygate4sd3_1
XFILLER_0_7_81 VPWR VGND VPWR VGND sky130_ef_sc_hd__decap_12
X_7328_ _3611_ VGND VGND VPWR VPWR _0168_ sky130_fd_sc_hd__clkbuf_1
Xhold362 regfile.registers\[17\]\[18\] VGND VGND VPWR VPWR net442 sky130_fd_sc_hd__dlygate4sd3_1
Xhold384 regfile.registers\[8\]\[24\] VGND VGND VPWR VPWR net464 sky130_fd_sc_hd__dlygate4sd3_1
X_7259_ net425 _3531_ _3564_ VGND VGND VPWR VPWR _3574_ sky130_fd_sc_hd__mux2_1
Xhold373 regfile.registers\[17\]\[15\] VGND VGND VPWR VPWR net453 sky130_fd_sc_hd__dlygate4sd3_1
Xhold395 regfile.registers\[0\]\[14\] VGND VGND VPWR VPWR net475 sky130_fd_sc_hd__dlygate4sd3_1
XTAP_TAPCELL_ROW_5_343 VGND VPWR sky130_fd_sc_hd__tapvpwrvgnd_1
Xhold1051 regfile.registers\[3\]\[21\] VGND VGND VPWR VPWR net1131 sky130_fd_sc_hd__dlygate4sd3_1
Xhold1040 regfile.registers\[14\]\[15\] VGND VGND VPWR VPWR net1120 sky130_fd_sc_hd__dlygate4sd3_1
XFILLER_0_99_258 VGND VGND VPWR VPWR sky130_fd_sc_hd__decap_6
XFILLER_0_95_420 VGND VGND VPWR VPWR sky130_fd_sc_hd__decap_6
XFILLER_0_67_166 VGND VGND VPWR VPWR sky130_fd_sc_hd__fill_2
XFILLER_0_67_188 VGND VGND VPWR VPWR sky130_fd_sc_hd__fill_1
XTAP_TAPCELL_ROW_52_982 VGND VPWR sky130_fd_sc_hd__tapvpwrvgnd_1
XFILLER_0_91_670 VGND VGND VPWR VPWR sky130_fd_sc_hd__fill_2
XFILLER_0_63_383 VGND VGND VPWR VPWR sky130_fd_sc_hd__fill_1
XFILLER_0_3_609 VGND VGND VPWR VPWR sky130_fd_sc_hd__fill_1
Xrebuffer7 _1399_ VGND VGND VPWR VPWR net1138 sky130_fd_sc_hd__dlygate4sd1_1
XFILLER_0_121_444 VGND VGND VPWR VPWR sky130_fd_sc_hd__decap_4
XTAP_TAPCELL_ROW_114_1823 VGND VPWR sky130_fd_sc_hd__tapvpwrvgnd_1
XTAP_TAPCELL_ROW_114_1812 VGND VPWR sky130_fd_sc_hd__tapvpwrvgnd_1
XFILLER_0_121_455 VGND VGND VPWR VPWR sky130_fd_sc_hd__fill_1
XFILLER_0_48_15 VPWR VGND VPWR VGND sky130_ef_sc_hd__decap_12
XFILLER_0_101_190 VGND VGND VPWR VPWR sky130_fd_sc_hd__decap_3
XFILLER_0_3_39 VPWR VGND VPWR VGND sky130_ef_sc_hd__decap_12
Xclkbuf_leaf_6_CLK clknet_3_0__leaf_CLK VGND VGND VPWR VPWR clknet_leaf_6_CLK sky130_fd_sc_hd__clkbuf_8
XTAP_TAPCELL_ROW_125_1963 VGND VPWR sky130_fd_sc_hd__tapvpwrvgnd_1
XFILLER_0_98_280 VGND VGND VPWR VPWR sky130_fd_sc_hd__decap_8
X_4960_ _1655_ VGND VGND VPWR VPWR _1716_ sky130_fd_sc_hd__buf_4
XFILLER_0_129_533 VPWR VGND VPWR VGND sky130_ef_sc_hd__decap_12
X_4891_ regfile.registers\[28\]\[0\] regfile.registers\[29\]\[0\] regfile.registers\[30\]\[0\]
+ regfile.registers\[31\]\[0\] net1 net2 VGND VGND VPWR VPWR _1647_ sky130_fd_sc_hd__mux4_1
XFILLER_0_129_555 VGND VGND VPWR VPWR sky130_fd_sc_hd__decap_4
X_6630_ _3224_ VGND VGND VPWR VPWR _0881_ sky130_fd_sc_hd__clkbuf_1
XFILLER_0_13_51 VGND VGND VPWR VPWR sky130_fd_sc_hd__decap_4
X_6561_ _3186_ VGND VGND VPWR VPWR _0850_ sky130_fd_sc_hd__clkbuf_1
X_8300_ _3009_ net618 _4119_ VGND VGND VPWR VPWR _4127_ sky130_fd_sc_hd__mux2_1
XFILLER_0_15_726 VGND VGND VPWR VPWR sky130_fd_sc_hd__fill_2
X_5512_ regfile.registers\[0\]\[6\] regfile.registers\[1\]\[6\] regfile.registers\[2\]\[6\]
+ regfile.registers\[3\]\[6\] _1703_ _1706_ VGND VGND VPWR VPWR _2268_ sky130_fd_sc_hd__mux4_1
XFILLER_0_120_41 VPWR VGND VPWR VGND sky130_ef_sc_hd__decap_12
X_6492_ _3149_ VGND VGND VPWR VPWR _0818_ sky130_fd_sc_hd__clkbuf_1
XFILLER_0_89_55 VGND VGND VPWR VPWR sky130_fd_sc_hd__fill_1
XFILLER_0_82_692 VGND VGND VPWR VPWR sky130_fd_sc_hd__decap_8
XFILLER_0_80_7 VPWR VGND VPWR VGND sky130_ef_sc_hd__decap_12
XTAP_TAPCELL_ROW_76_1306 VGND VPWR sky130_fd_sc_hd__tapvpwrvgnd_1
XFILLER_0_15_748 VPWR VGND VPWR VGND sky130_ef_sc_hd__decap_12
X_9280_ clknet_leaf_76_CLK _0440_ VGND VGND VPWR VPWR regfile.registers\[25\]\[2\]
+ sky130_fd_sc_hd__dfxtp_1
XTAP_TAPCELL_ROW_30_687 VGND VPWR sky130_fd_sc_hd__tapvpwrvgnd_1
XFILLER_0_89_77 VGND VGND VPWR VPWR sky130_fd_sc_hd__decap_3
X_8231_ _4090_ VGND VGND VPWR VPWR _0592_ sky130_fd_sc_hd__clkbuf_1
X_5443_ regfile.registers\[16\]\[10\] regfile.registers\[17\]\[10\] regfile.registers\[18\]\[10\]
+ regfile.registers\[19\]\[10\] _2050_ _2052_ VGND VGND VPWR VPWR _2199_ sky130_fd_sc_hd__mux4_1
XFILLER_0_42_589 VGND VGND VPWR VPWR sky130_fd_sc_hd__decap_4
XFILLER_0_120_85 VGND VGND VPWR VPWR sky130_fd_sc_hd__decap_4
XFILLER_0_112_477 VGND VGND VPWR VPWR sky130_fd_sc_hd__fill_2
X_8162_ net948 _3478_ _4047_ VGND VGND VPWR VPWR _4054_ sky130_fd_sc_hd__mux2_1
X_5374_ _2128_ _2129_ _2044_ VGND VGND VPWR VPWR _2130_ sky130_fd_sc_hd__mux2_1
X_7113_ net218 _3482_ _3471_ VGND VGND VPWR VPWR _3483_ sky130_fd_sc_hd__mux2_1
X_4325_ _1079_ _1080_ _1040_ VGND VGND VPWR VPWR _1081_ sky130_fd_sc_hd__mux2_1
X_8093_ _4017_ VGND VGND VPWR VPWR _0527_ sky130_fd_sc_hd__clkbuf_1
X_7044_ _3444_ VGND VGND VPWR VPWR _0051_ sky130_fd_sc_hd__clkbuf_1
XTAP_TAPCELL_ROW_2_302 VGND VPWR sky130_fd_sc_hd__tapvpwrvgnd_1
XTAP_TAPCELL_ROW_2_313 VGND VPWR sky130_fd_sc_hd__tapvpwrvgnd_1
XFILLER_0_97_729 VPWR VGND VPWR VGND sky130_ef_sc_hd__decap_12
XTAP_TAPCELL_ROW_87_1457 VGND VPWR sky130_fd_sc_hd__tapvpwrvgnd_1
X_8995_ clknet_leaf_84_CLK _0155_ VGND VGND VPWR VPWR regfile.registers\[29\]\[5\]
+ sky130_fd_sc_hd__dfxtp_1
X_7946_ _3939_ VGND VGND VPWR VPWR _0458_ sky130_fd_sc_hd__clkbuf_1
XTAP_TAPCELL_ROW_38_787 VGND VPWR sky130_fd_sc_hd__tapvpwrvgnd_1
XTAP_TAPCELL_ROW_38_798 VGND VPWR sky130_fd_sc_hd__tapvpwrvgnd_1
X_7877_ net139 _3533_ _3902_ VGND VGND VPWR VPWR _3903_ sky130_fd_sc_hd__mux2_1
XFILLER_0_49_155 VGND VGND VPWR VPWR sky130_fd_sc_hd__fill_1
X_6828_ _3073_ net968 _3325_ VGND VGND VPWR VPWR _3330_ sky130_fd_sc_hd__mux2_1
XFILLER_0_9_274 VGND VGND VPWR VPWR sky130_fd_sc_hd__decap_6
XFILLER_0_123_709 VPWR VGND VPWR VGND sky130_ef_sc_hd__decap_12
X_6759_ _3293_ VGND VGND VPWR VPWR _0941_ sky130_fd_sc_hd__clkbuf_1
XFILLER_0_107_249 VGND VGND VPWR VPWR sky130_fd_sc_hd__decap_4
XFILLER_0_18_575 VGND VGND VPWR VPWR sky130_fd_sc_hd__fill_2
XFILLER_0_18_586 VGND VGND VPWR VPWR sky130_fd_sc_hd__fill_2
X_9547_ clknet_leaf_105_CLK _0707_ VGND VGND VPWR VPWR regfile.registers\[11\]\[13\]
+ sky130_fd_sc_hd__dfxtp_1
X_9478_ clknet_leaf_70_CLK _0638_ VGND VGND VPWR VPWR regfile.registers\[16\]\[8\]
+ sky130_fd_sc_hd__dfxtp_1
X_8429_ _4195_ VGND VGND VPWR VPWR _0685_ sky130_fd_sc_hd__clkbuf_1
XTAP_TAPCELL_ROW_98_1597 VGND VPWR sky130_fd_sc_hd__tapvpwrvgnd_1
XFILLER_0_20_206 VGND VGND VPWR VPWR sky130_fd_sc_hd__decap_4
Xhold170 regfile.registers\[12\]\[25\] VGND VGND VPWR VPWR net250 sky130_fd_sc_hd__dlygate4sd3_1
XFILLER_0_103_499 VGND VGND VPWR VPWR sky130_fd_sc_hd__decap_4
XFILLER_0_103_477 VGND VGND VPWR VPWR sky130_fd_sc_hd__decap_6
Xhold192 regfile.registers\[29\]\[25\] VGND VGND VPWR VPWR net272 sky130_fd_sc_hd__dlygate4sd3_1
Xhold181 regfile.registers\[10\]\[28\] VGND VGND VPWR VPWR net261 sky130_fd_sc_hd__dlygate4sd3_1
XTAP_TAPCELL_ROW_129_2041 VGND VPWR sky130_fd_sc_hd__tapvpwrvgnd_1
XTAP_TAPCELL_ROW_129_2030 VGND VPWR sky130_fd_sc_hd__tapvpwrvgnd_1
XFILLER_0_18_29 VPWR VGND VPWR VGND sky130_ef_sc_hd__decap_12
XFILLER_0_96_751 VGND VGND VPWR VPWR sky130_fd_sc_hd__decap_4
XFILLER_0_50_27 VGND VGND VPWR VPWR sky130_fd_sc_hd__fill_1
XFILLER_0_126_569 VPWR VGND VPWR VGND sky130_ef_sc_hd__decap_12
XTAP_TAPCELL_ROW_120_1893 VGND VPWR sky130_fd_sc_hd__tapvpwrvgnd_1
XFILLER_0_71_629 VGND VGND VPWR VPWR sky130_fd_sc_hd__decap_6
XFILLER_0_64_670 VGND VGND VPWR VPWR sky130_fd_sc_hd__decap_4
XFILLER_0_64_692 VGND VGND VPWR VPWR sky130_fd_sc_hd__fill_1
XFILLER_0_3_406 VGND VGND VPWR VPWR sky130_fd_sc_hd__decap_3
XFILLER_0_12_707 VGND VGND VPWR VPWR sky130_fd_sc_hd__fill_2
XFILLER_0_11_206 VGND VGND VPWR VPWR sky130_fd_sc_hd__fill_1
XTAP_TAPCELL_ROW_58_1058 VGND VPWR sky130_fd_sc_hd__tapvpwrvgnd_1
XFILLER_0_51_386 VGND VGND VPWR VPWR sky130_fd_sc_hd__decap_6
XFILLER_0_59_69 VGND VGND VPWR VPWR sky130_fd_sc_hd__decap_6
XTAP_TAPCELL_ROW_58_1069 VGND VPWR sky130_fd_sc_hd__tapvpwrvgnd_1
XTAP_TAPCELL_ROW_71_1236 VGND VPWR sky130_fd_sc_hd__tapvpwrvgnd_1
X_5090_ regfile.registers\[28\]\[17\] regfile.registers\[29\]\[17\] regfile.registers\[30\]\[17\]
+ regfile.registers\[31\]\[17\] _1689_ _1693_ VGND VGND VPWR VPWR _1846_ sky130_fd_sc_hd__mux4_1
XFILLER_0_79_707 VGND VGND VPWR VPWR sky130_fd_sc_hd__fill_1
XFILLER_0_78_206 VGND VGND VPWR VPWR sky130_fd_sc_hd__fill_1
X_5992_ _2347_ _2622_ VGND VGND VPWR VPWR _2732_ sky130_fd_sc_hd__nor2_1
X_7800_ net394 _3525_ _3855_ VGND VGND VPWR VPWR _3862_ sky130_fd_sc_hd__mux2_1
X_8780_ clknet_leaf_110_CLK _0964_ VGND VGND VPWR VPWR regfile.registers\[14\]\[14\]
+ sky130_fd_sc_hd__dfxtp_1
XFILLER_0_91_78 VGND VGND VPWR VPWR sky130_fd_sc_hd__fill_1
XFILLER_0_87_762 VGND VGND VPWR VPWR sky130_fd_sc_hd__fill_1
X_4943_ _1696_ VGND VGND VPWR VPWR _1699_ sky130_fd_sc_hd__clkbuf_8
XTAP_TAPCELL_ROW_35_746 VGND VPWR sky130_fd_sc_hd__tapvpwrvgnd_1
XTAP_TAPCELL_ROW_35_757 VGND VPWR sky130_fd_sc_hd__tapvpwrvgnd_1
X_7731_ _3825_ VGND VGND VPWR VPWR _0357_ sky130_fd_sc_hd__clkbuf_1
XFILLER_0_24_83 VGND VGND VPWR VPWR sky130_fd_sc_hd__fill_1
XFILLER_0_47_626 VGND VGND VPWR VPWR sky130_fd_sc_hd__fill_2
XFILLER_0_47_637 VGND VGND VPWR VPWR sky130_fd_sc_hd__decap_8
X_7662_ net289 _3523_ _3783_ VGND VGND VPWR VPWR _3789_ sky130_fd_sc_hd__mux2_1
XFILLER_0_129_363 VGND VGND VPWR VPWR sky130_fd_sc_hd__fill_1
XFILLER_0_117_525 VPWR VGND VPWR VGND sky130_ef_sc_hd__decap_12
X_9401_ clknet_leaf_37_CLK _0561_ VGND VGND VPWR VPWR regfile.registers\[24\]\[27\]
+ sky130_fd_sc_hd__dfxtp_1
XTAP_TAPCELL_ROW_82_1387 VGND VPWR sky130_fd_sc_hd__tapvpwrvgnd_1
X_6613_ _3215_ VGND VGND VPWR VPWR _0873_ sky130_fd_sc_hd__clkbuf_1