*SPEF "ieee 1481-1999"
*DESIGN "ALU"
*DATE "23:49:22 Wednesday May 07, 2025"
*VENDOR "The OpenROAD Project"
*PROGRAM "OpenROAD"
*VERSION "b16bda7e82721d10566ff7e2b68f1ff0be9f9e38"
*DESIGN_FLOW "NAME_SCOPE LOCAL" "PIN_CAP NONE"
*DIVIDER /
*DELIMITER :
*BUS_DELIMITER []
*T_UNIT 1 NS
*C_UNIT 1 PF
*R_UNIT 1 OHM
*L_UNIT 1 HENRY

*NAME_MAP
*1 A[0]
*2 A[1]
*3 A[2]
*4 A[3]
*5 A[4]
*6 A[5]
*7 A[6]
*8 A[7]
*9 B[0]
*10 B[1]
*11 B[2]
*12 B[3]
*13 B[4]
*14 B[5]
*15 B[6]
*16 B[7]
*19 opcode[0]
*20 opcode[1]
*21 opcode[2]
*22 out[0]
*23 out[1]
*24 out[2]
*25 out[3]
*26 out[4]
*27 out[5]
*28 out[6]
*29 out[7]
*30 _000_
*31 _001_
*32 _002_
*33 _003_
*34 _004_
*35 _005_
*36 _006_
*37 _007_
*38 _008_
*39 _009_
*40 _010_
*41 _011_
*42 _012_
*43 _013_
*44 _014_
*45 _015_
*46 _016_
*47 _017_
*48 _018_
*49 _019_
*50 _020_
*51 _021_
*52 _022_
*53 _023_
*54 _024_
*55 _025_
*56 _026_
*57 _027_
*58 _028_
*59 _029_
*60 _030_
*61 _031_
*62 _032_
*63 _033_
*64 _034_
*65 _035_
*66 _036_
*67 _037_
*68 _038_
*69 _039_
*70 _040_
*71 _041_
*72 _042_
*73 _043_
*74 _044_
*75 _045_
*76 _046_
*77 _047_
*78 _048_
*79 _049_
*80 _050_
*81 _051_
*82 _052_
*83 _053_
*84 _054_
*85 _055_
*86 _056_
*87 _057_
*88 _058_
*89 _059_
*90 _060_
*91 _061_
*92 _062_
*93 _063_
*94 _064_
*95 _065_
*96 _066_
*97 _067_
*98 _068_
*99 _069_
*100 _070_
*101 _071_
*102 _072_
*103 _073_
*104 _074_
*105 _075_
*106 _076_
*107 _077_
*108 _078_
*109 _079_
*110 _080_
*111 _081_
*112 _082_
*113 _083_
*114 _084_
*115 _085_
*116 _086_
*117 _087_
*118 _088_
*119 _089_
*120 _090_
*121 _091_
*122 _092_
*123 _093_
*124 _094_
*125 _095_
*126 net1
*127 net10
*128 net11
*129 net12
*130 net13
*131 net14
*132 net15
*133 net16
*134 net17
*135 net18
*136 net19
*137 net2
*138 net20
*139 net21
*140 net22
*141 net23
*142 net24
*143 net25
*144 net26
*145 net27
*146 net28
*147 net29
*148 net3
*149 net30
*150 net4
*151 net5
*152 net6
*153 net7
*154 net8
*155 net9
*156 ANTENNA_1
*157 FILLER_0_0_14
*158 FILLER_0_0_26
*159 FILLER_0_0_29
*160 FILLER_0_0_41
*161 FILLER_0_0_53
*162 FILLER_0_0_71
*163 FILLER_0_0_83
*164 FILLER_0_0_85
*165 FILLER_0_10_100
*166 FILLER_0_10_11
*167 FILLER_0_10_23
*168 FILLER_0_10_27
*169 FILLER_0_10_29
*170 FILLER_0_10_35
*171 FILLER_0_10_39
*172 FILLER_0_10_46
*173 FILLER_0_10_58
*174 FILLER_0_10_64
*175 FILLER_0_10_72
*176 FILLER_0_10_80
*177 FILLER_0_10_85
*178 FILLER_0_10_94
*179 FILLER_0_11_40
*180 FILLER_0_11_57
*181 FILLER_0_11_65
*182 FILLER_0_11_81
*183 FILLER_0_11_92
*184 FILLER_0_11_98
*185 FILLER_0_12_20
*186 FILLER_0_12_29
*187 FILLER_0_12_37
*188 FILLER_0_12_55
*189 FILLER_0_12_76
*190 FILLER_0_12_99
*191 FILLER_0_13_22
*192 FILLER_0_13_29
*193 FILLER_0_13_41
*194 FILLER_0_13_53
*195 FILLER_0_13_61
*196 FILLER_0_13_85
*197 FILLER_0_13_93
*198 FILLER_0_1_11
*199 FILLER_0_1_23
*200 FILLER_0_1_35
*201 FILLER_0_1_47
*202 FILLER_0_1_55
*203 FILLER_0_1_57
*204 FILLER_0_1_76
*205 FILLER_0_1_82
*206 FILLER_0_1_89
*207 FILLER_0_1_93
*208 FILLER_0_2_100
*209 FILLER_0_2_15
*210 FILLER_0_2_29
*211 FILLER_0_2_41
*212 FILLER_0_2_45
*213 FILLER_0_2_58
*214 FILLER_0_2_7
*215 FILLER_0_2_70
*216 FILLER_0_2_82
*217 FILLER_0_2_85
*218 FILLER_0_3_19
*219 FILLER_0_3_23
*220 FILLER_0_3_28
*221 FILLER_0_3_40
*222 FILLER_0_3_52
*223 FILLER_0_3_63
*224 FILLER_0_3_7
*225 FILLER_0_3_71
*226 FILLER_0_3_80
*227 FILLER_0_3_85
*228 FILLER_0_3_93
*229 FILLER_0_3_97
*230 FILLER_0_4_11
*231 FILLER_0_4_17
*232 FILLER_0_4_26
*233 FILLER_0_4_32
*234 FILLER_0_4_44
*235 FILLER_0_4_57
*236 FILLER_0_4_7
*237 FILLER_0_4_79
*238 FILLER_0_4_83
*239 FILLER_0_4_85
*240 FILLER_0_4_89
*241 FILLER_0_5_19
*242 FILLER_0_5_31
*243 FILLER_0_5_39
*244 FILLER_0_5_57
*245 FILLER_0_5_69
*246 FILLER_0_5_77
*247 FILLER_0_5_90
*248 FILLER_0_6_101
*249 FILLER_0_6_17
*250 FILLER_0_6_22
*251 FILLER_0_6_29
*252 FILLER_0_6_34
*253 FILLER_0_6_46
*254 FILLER_0_6_53
*255 FILLER_0_6_57
*256 FILLER_0_6_65
*257 FILLER_0_6_72
*258 FILLER_0_6_9
*259 FILLER_0_7_101
*260 FILLER_0_7_11
*261 FILLER_0_7_23
*262 FILLER_0_7_38
*263 FILLER_0_7_48
*264 FILLER_0_7_62
*265 FILLER_0_7_83
*266 FILLER_0_8_10
*267 FILLER_0_8_19
*268 FILLER_0_8_27
*269 FILLER_0_8_3
*270 FILLER_0_8_45
*271 FILLER_0_8_57
*272 FILLER_0_8_80
*273 FILLER_0_8_89
*274 FILLER_0_9_24
*275 FILLER_0_9_36
*276 FILLER_0_9_46
*277 FILLER_0_9_52
*278 FILLER_0_9_70
*279 FILLER_0_9_97
*280 PHY_EDGE_ROW_0_Left_14
*281 PHY_EDGE_ROW_0_Right_0
*282 PHY_EDGE_ROW_10_Left_24
*283 PHY_EDGE_ROW_10_Right_10
*284 PHY_EDGE_ROW_11_Left_25
*285 PHY_EDGE_ROW_11_Right_11
*286 PHY_EDGE_ROW_12_Left_26
*287 PHY_EDGE_ROW_12_Right_12
*288 PHY_EDGE_ROW_13_Left_27
*289 PHY_EDGE_ROW_13_Right_13
*290 PHY_EDGE_ROW_1_Left_15
*291 PHY_EDGE_ROW_1_Right_1
*292 PHY_EDGE_ROW_2_Left_16
*293 PHY_EDGE_ROW_2_Right_2
*294 PHY_EDGE_ROW_3_Left_17
*295 PHY_EDGE_ROW_3_Right_3
*296 PHY_EDGE_ROW_4_Left_18
*297 PHY_EDGE_ROW_4_Right_4
*298 PHY_EDGE_ROW_5_Left_19
*299 PHY_EDGE_ROW_5_Right_5
*300 PHY_EDGE_ROW_6_Left_20
*301 PHY_EDGE_ROW_6_Right_6
*302 PHY_EDGE_ROW_7_Left_21
*303 PHY_EDGE_ROW_7_Right_7
*304 PHY_EDGE_ROW_8_Left_22
*305 PHY_EDGE_ROW_8_Right_8
*306 PHY_EDGE_ROW_9_Left_23
*307 PHY_EDGE_ROW_9_Right_9
*308 TAP_TAPCELL_ROW_0_28
*309 TAP_TAPCELL_ROW_0_29
*310 TAP_TAPCELL_ROW_0_30
*311 TAP_TAPCELL_ROW_10_44
*312 TAP_TAPCELL_ROW_10_45
*313 TAP_TAPCELL_ROW_11_46
*314 TAP_TAPCELL_ROW_12_47
*315 TAP_TAPCELL_ROW_12_48
*316 TAP_TAPCELL_ROW_13_49
*317 TAP_TAPCELL_ROW_13_50
*318 TAP_TAPCELL_ROW_13_51
*319 TAP_TAPCELL_ROW_1_31
*320 TAP_TAPCELL_ROW_2_32
*321 TAP_TAPCELL_ROW_2_33
*322 TAP_TAPCELL_ROW_3_34
*323 TAP_TAPCELL_ROW_4_35
*324 TAP_TAPCELL_ROW_4_36
*325 TAP_TAPCELL_ROW_5_37
*326 TAP_TAPCELL_ROW_6_38
*327 TAP_TAPCELL_ROW_6_39
*328 TAP_TAPCELL_ROW_7_40
*329 TAP_TAPCELL_ROW_8_41
*330 TAP_TAPCELL_ROW_8_42
*331 TAP_TAPCELL_ROW_9_43
*332 _096_
*333 _097_
*334 _098_
*335 _099_
*336 _100_
*337 _101_
*338 _102_
*339 _103_
*340 _104_
*341 _105_
*342 _106_
*343 _107_
*344 _108_
*345 _109_
*346 _110_
*347 _111_
*348 _112_
*349 _113_
*350 _114_
*351 _115_
*352 _116_
*353 _117_
*354 _118_
*355 _119_
*356 _120_
*357 _121_
*358 _122_
*359 _123_
*360 _124_
*361 _125_
*362 _126_
*363 _127_
*364 _128_
*365 _129_
*366 _130_
*367 _131_
*368 _132_
*369 _133_
*370 _134_
*371 _135_
*372 _136_
*373 _137_
*374 _138_
*375 _139_
*376 _140_
*377 _141_
*378 _142_
*379 _143_
*380 _144_
*381 _145_
*382 _146_
*383 _147_
*384 _148_
*385 _149_
*386 _150_
*387 _151_
*388 _152_
*389 _153_
*390 _154_
*391 _155_
*392 _156_
*393 _157_
*394 _158_
*395 _159_
*396 _160_
*397 _161_
*398 _162_
*399 _163_
*400 _164_
*401 _165_
*402 _166_
*403 _167_
*404 _168_
*405 _169_
*406 _170_
*407 _171_
*408 _172_
*409 _173_
*410 _174_
*411 _175_
*412 _176_
*413 _177_
*414 _178_
*415 _179_
*416 _180_
*417 _181_
*418 _182_
*419 _183_
*420 _184_
*421 _185_
*422 _186_
*423 _187_
*424 _188_
*425 _189_
*426 _190_
*427 _191_
*428 _192_
*429 _193_
*430 _194_
*431 _195_
*432 _196_
*433 _197_
*434 _198_
*435 _199_
*436 clone1
*437 input1
*438 input10
*439 input11
*440 input12
*441 input13
*442 input14
*443 input15
*444 input16
*445 input17
*446 input18
*447 input19
*448 input2
*449 input3
*450 input4
*451 input5
*452 input6
*453 input7
*454 input8
*455 input9
*456 output20
*457 output21
*458 output22
*459 output23
*460 output24
*461 output25
*462 output26
*463 output27
*464 rebuffer2
*465 rebuffer3

*PORTS
A[0] I
A[1] I
A[2] I
A[3] I
A[4] I
A[5] I
A[6] I
A[7] I
B[0] I
B[1] I
B[2] I
B[3] I
B[4] I
B[5] I
B[6] I
B[7] I
opcode[0] I
opcode[1] I
opcode[2] I
out[0] O
out[1] O
out[2] O
out[3] O
out[4] O
out[5] O
out[6] O
out[7] O

*D_NET *1 0.000818485
*CONN
*P A[0] I
*I *437:A I *D sky130_fd_sc_hd__dlymetal6s2s_1
*CAP
1 A[0] 0.000330106
2 *437:A 0.000330106
3 *437:A *372:A_N 1.32056e-05
4 *437:A *444:A 4.02259e-05
5 *437:A *448:A 4.13962e-05
6 *437:A *131:14 6.34448e-05
*RES
1 A[0] *437:A 21.6946 
*END

*D_NET *2 0.000833974
*CONN
*P A[1] I
*I *448:A I *D sky130_fd_sc_hd__clkbuf_2
*CAP
1 A[1] 0.000353363
2 *448:A 0.000353363
3 *448:A *449:A 3.65097e-05
4 *448:A *131:14 4.9342e-05
5 *437:A *448:A 4.13962e-05
*RES
1 A[1] *448:A 21.8017 
*END

*D_NET *3 0.00108603
*CONN
*P A[2] I
*I *449:A I *D sky130_fd_sc_hd__clkbuf_2
*CAP
1 A[2] 0.000342178
2 *449:A 0.000342178
3 *449:A *450:A 4.02259e-05
4 *449:A *451:A 0
5 *449:A *65:54 0.000112154
6 *449:A *153:16 0.000212785
7 *448:A *449:A 3.65097e-05
*RES
1 A[2] *449:A 20.6235 
*END

*D_NET *4 0.000837716
*CONN
*P A[3] I
*I *450:A I *D sky130_fd_sc_hd__clkbuf_2
*CAP
1 A[3] 0.000355819
2 *450:A 0.000355819
3 *450:A *451:A 3.65097e-05
4 *450:A *131:14 4.9342e-05
5 *449:A *450:A 4.02259e-05
*RES
1 A[3] *450:A 21.8017 
*END

*D_NET *5 0.00140256
*CONN
*P A[4] I
*I *451:A I *D sky130_fd_sc_hd__clkbuf_2
*CAP
1 A[4] 0.000541071
2 *451:A 0.000541071
3 *451:A *452:A 4.02259e-05
4 *451:A *453:A 0
5 *451:A *46:26 0
6 *451:A *54:24 7.71666e-05
7 *451:A *145:26 0
8 *451:A *152:10 0.00016652
9 *449:A *451:A 0
10 *450:A *451:A 3.65097e-05
*RES
1 A[4] *451:A 20.6082 
*END

*D_NET *6 0.00101289
*CONN
*P A[5] I
*I *452:A I *D sky130_fd_sc_hd__clkbuf_2
*CAP
1 A[5] 0.000284967
2 *452:A 0.000284967
3 *452:A *453:A 0.000402725
4 *451:A *452:A 4.02259e-05
*RES
1 A[5] *452:A 21.8017 
*END

*D_NET *7 0.00138964
*CONN
*P A[6] I
*I *453:A I *D sky130_fd_sc_hd__clkbuf_2
*CAP
1 A[6] 0.000434546
2 *453:A 0.000434546
3 *453:A *454:A 5.20644e-05
4 *453:A *131:14 0
5 *453:A *152:10 3.18676e-05
6 *453:A *153:16 3.38936e-05
7 *451:A *453:A 0
8 *452:A *453:A 0.000402725
*RES
1 A[6] *453:A 26.2447 
*END

*D_NET *8 0.00246754
*CONN
*P A[7] I
*I *454:A I *D sky130_fd_sc_hd__buf_1
*CAP
1 A[7] 0.0010814
2 *454:A 0.0010814
3 *454:A *356:A1 3.34295e-05
4 *454:A *145:26 0
5 *454:A *153:51 0.000219254
6 *453:A *454:A 5.20644e-05
*RES
1 A[7] *454:A 29.848 
*END

*D_NET *9 0.000908768
*CONN
*P B[0] I
*I *455:A I *D sky130_fd_sc_hd__clkbuf_2
*CAP
1 B[0] 0.000342334
2 *455:A 0.000342334
3 *455:A *438:A 3.81258e-05
4 *455:A *447:A 0.000185974
*RES
1 B[0] *455:A 22.4088 
*END

*D_NET *10 0.000911272
*CONN
*P B[1] I
*I *438:A I *D sky130_fd_sc_hd__clkbuf_2
*CAP
1 B[1] 0.000281285
2 *438:A 0.000281285
3 *438:A *439:A 3.65097e-05
4 *438:A *447:A 0.000274066
5 *455:A *438:A 3.81258e-05
*RES
1 B[1] *438:A 21.8017 
*END

*D_NET *11 0.00107276
*CONN
*P B[2] I
*I *439:A I *D sky130_fd_sc_hd__clkbuf_2
*CAP
1 B[2] 0.000384536
2 *439:A 0.000384536
3 *439:A *407:A1 8.91963e-06
4 *439:A *440:A 4.36498e-05
5 *439:A *441:A 0
6 *439:A *32:18 0.000158593
7 *439:A *33:16 3.9979e-05
8 *439:A *54:24 1.60335e-05
9 *438:A *439:A 3.65097e-05
*RES
1 B[2] *439:A 20.3199 
*END

*D_NET *12 0.00102166
*CONN
*P B[3] I
*I *440:A I *D sky130_fd_sc_hd__clkbuf_2
*CAP
1 B[3] 0.000288312
2 *440:A 0.000288312
3 *440:A *441:A 0.000295119
4 *440:A *129:14 9.84729e-05
5 *440:A *131:40 7.79781e-06
6 *439:A *440:A 4.36498e-05
*RES
1 B[3] *440:A 21.8017 
*END

*D_NET *13 0.00174118
*CONN
*P B[4] I
*I *441:A I *D sky130_fd_sc_hd__clkbuf_2
*CAP
1 B[4] 0.000516164
2 *441:A 0.000516164
3 *441:A *407:A1 1.84776e-05
4 *441:A *442:A 3.52583e-05
5 *441:A *443:A 0
6 *441:A *129:14 4.37451e-05
7 *441:A *131:40 0.000316249
8 *439:A *441:A 0
9 *440:A *441:A 0.000295119
*RES
1 B[4] *441:A 25.7274 
*END

*D_NET *14 0.000989123
*CONN
*P B[5] I
*I *442:A I *D sky130_fd_sc_hd__clkbuf_2
*CAP
1 B[5] 0.000271322
2 *442:A 0.000271322
3 *442:A *443:A 0.0003469
4 *442:A *131:8 6.43196e-05
5 *441:A *442:A 3.52583e-05
*RES
1 B[5] *442:A 21.1946 
*END

*D_NET *15 0.00143759
*CONN
*P B[6] I
*I *443:A I *D sky130_fd_sc_hd__clkbuf_2
*CAP
1 B[6] 0.000407386
2 *443:A 0.000407386
3 *443:A *444:A 5.20644e-05
4 *443:A *63:72 5.03772e-05
5 *443:A *131:8 8.25843e-06
6 *443:A *131:14 0.00012022
7 *443:A *131:40 4.49963e-05
8 *441:A *443:A 0
9 *442:A *443:A 0.0003469
*RES
1 B[6] *443:A 24.4232 
*END

*D_NET *16 0.00124755
*CONN
*P B[7] I
*I *444:A I *D sky130_fd_sc_hd__buf_1
*CAP
1 B[7] 0.000426341
2 *444:A 0.000426341
3 *444:A *32:18 0.000162204
4 *444:A *46:26 0.000113123
5 *444:A *129:43 0
6 *444:A *136:22 2.72545e-05
7 *437:A *444:A 4.02259e-05
8 *443:A *444:A 5.20644e-05
*RES
1 B[7] *444:A 20.1605 
*END

*D_NET *19 0.00131766
*CONN
*P opcode[0] I
*I *445:A I *D sky130_fd_sc_hd__buf_6
*CAP
1 opcode[0] 0.000460154
2 *445:A 0.000460154
3 *445:A *446:A 0.000397353
*RES
1 opcode[0] *445:A 23.3403 
*END

*D_NET *20 0.00159197
*CONN
*P opcode[1] I
*I *446:A I *D sky130_fd_sc_hd__buf_4
*CAP
1 opcode[1] 0.000490143
2 *446:A 0.000490143
3 *446:A *447:A 4.50567e-05
4 *446:A *155:6 0.00016927
5 *445:A *446:A 0.000397353
*RES
1 opcode[1] *446:A 23.9838 
*END

*D_NET *21 0.00123332
*CONN
*P opcode[2] I
*I *447:A I *D sky130_fd_sc_hd__buf_4
*CAP
1 opcode[2] 0.00033663
2 *447:A 0.00033663
3 *447:A *127:6 5.4959e-05
4 *438:A *447:A 0.000274066
5 *446:A *447:A 4.50567e-05
6 *455:A *447:A 0.000185974
*RES
1 opcode[2] *447:A 24.3161 
*END

*D_NET *22 0.00107563
*CONN
*P out[0] O
*I *456:X O *D sky130_fd_sc_hd__buf_2
*CAP
1 out[0] 0.000526093
2 *456:X 0.000526093
3 out[0] out[1] 0
4 out[0] *138:24 2.34423e-05
*RES
1 *456:X out[0] 23.6592 
*END

*D_NET *23 0.000895665
*CONN
*P out[1] O
*I *457:X O *D sky130_fd_sc_hd__buf_2
*CAP
1 out[1] 0.000315452
2 *457:X 0.000315452
3 out[1] out[2] 0
4 out[1] *457:A 1.16198e-05
5 out[1] *30:20 0.000134893
6 out[1] *138:24 0.000118247
7 out[0] out[1] 0
*RES
1 *457:X out[1] 18.4832 
*END

*D_NET *24 0.00109802
*CONN
*P out[2] O
*I *458:X O *D sky130_fd_sc_hd__buf_2
*CAP
1 out[2] 0.00035635
2 *458:X 0.00035635
3 out[2] out[3] 0
4 out[2] *379:A2 0.000113391
5 out[2] *30:20 0.000136007
6 out[2] *39:32 0.000135925
7 out[1] out[2] 0
*RES
1 *458:X out[2] 19.7128 
*END

*D_NET *25 0.00124325
*CONN
*P out[3] O
*I *459:X O *D sky130_fd_sc_hd__buf_2
*CAP
1 out[3] 0.000352198
2 *459:X 0.000352198
3 out[3] out[4] 0
4 out[3] *347:B 2.79405e-05
5 out[3] *30:20 0.000196138
6 out[3] *39:32 0.000198044
7 out[3] *129:103 0.00011673
8 out[2] out[3] 0
*RES
1 *459:X out[3] 20.6235 
*END

*D_NET *26 0.00355673
*CONN
*P out[4] O
*I *460:X O *D sky130_fd_sc_hd__buf_2
*CAP
1 out[4] 0.00124757
2 *460:X 0.00124757
3 out[4] out[5] 0
4 out[4] *344:C_N 3.47641e-06
5 out[4] *381:B1 0.000276019
6 out[4] *429:B 8.88417e-05
7 out[4] *53:39 0
8 out[4] *78:33 9.78661e-05
9 out[4] *91:24 0.000105575
10 out[4] *92:32 0.000230944
11 out[4] *143:22 0.000238238
12 out[4] *150:47 2.06178e-05
13 out[3] out[4] 0
*RES
1 *460:X out[4] 20.3757 
*END

*D_NET *27 0.0005598
*CONN
*P out[5] O
*I *461:X O *D sky130_fd_sc_hd__buf_2
*CAP
1 out[5] 0.000258687
2 *461:X 0.000258687
3 out[5] out[6] 0
4 out[5] *39:32 2.18087e-05
5 out[5] *60:37 2.06178e-05
6 out[4] out[5] 0
*RES
1 *461:X out[5] 18.1949 
*END

*D_NET *28 0.00144639
*CONN
*P out[6] O
*I *462:X O *D sky130_fd_sc_hd__buf_2
*CAP
1 out[6] 0.000606737
2 *462:X 0.000606737
3 out[6] out[7] 0
4 out[6] *347:C 1.47818e-06
5 out[6] *371:B1_N 0
6 out[6] *393:A1 0.000109672
7 out[6] *393:B1 0
8 out[6] *107:16 0.000119237
9 out[6] *145:26 0
10 out[6] *151:58 2.53112e-06
11 out[5] out[6] 0
*RES
1 *462:X out[6] 19.8416 
*END

*D_NET *29 0.00193738
*CONN
*P out[7] O
*I *463:X O *D sky130_fd_sc_hd__buf_6
*CAP
1 out[7] 0.000823824
2 *463:X 0.000823824
3 out[7] *393:A1 9.31893e-05
4 out[7] *393:B1 1.83828e-05
5 out[7] *107:16 5.23057e-05
6 out[7] *145:26 0.000125853
7 out[6] out[7] 0
*RES
1 *463:X out[7] 27.1292 
*END

*D_NET *30 0.0100986
*CONN
*I *410:A2 I *D sky130_fd_sc_hd__a31o_1
*I *404:X O *D sky130_fd_sc_hd__a211o_1
*CAP
1 *410:A2 0
2 *404:X 0.00191811
3 *30:20 0.00191811
4 *30:20 *340:B_N 4.89668e-05
5 *30:20 *347:A 0.000196107
6 *30:20 *354:B2 1.79373e-05
7 *30:20 *364:B1 2.18021e-05
8 *30:20 *379:A2 0.000424638
9 *30:20 *381:B2 0.000216755
10 *30:20 *389:B 1.13346e-05
11 *30:20 *390:B 0.000136252
12 *30:20 *404:B1 5.96516e-05
13 *30:20 *404:C1 7.90803e-05
14 *30:20 *39:32 0.000183948
15 *30:20 *89:16 2.06112e-05
16 *30:20 *127:84 1.39615e-05
17 *30:20 *129:103 4.15161e-05
18 *30:20 *137:72 0.000917795
19 *30:20 *137:86 0.000860307
20 *30:20 *138:24 0.00016195
21 *30:20 *140:26 0.00238277
22 out[1] *30:20 0.000134893
23 out[2] *30:20 0.000136007
24 out[3] *30:20 0.000196138
*RES
1 *404:X *30:20 46.5809 
2 *30:20 *410:A2 9.3 
*END

*D_NET *31 0.00455853
*CONN
*I *410:A3 I *D sky130_fd_sc_hd__a31o_1
*I *405:Y O *D sky130_fd_sc_hd__o211ai_1
*CAP
1 *410:A3 0.000666144
2 *405:Y 0.000666144
3 *410:A3 *340:B_N 9.84729e-05
4 *410:A3 *346:A1 4.18978e-05
5 *410:A3 *346:A2 5.49995e-05
6 *410:A3 *346:B1 7.22574e-05
7 *410:A3 *348:A1 0.000169465
8 *410:A3 *349:C 0.000139281
9 *410:A3 *360:B 4.77693e-05
10 *410:A3 *411:B1 0.000439324
11 *410:A3 *417:A3 0.000227672
12 *410:A3 *72:6 0.000866245
13 *410:A3 *74:16 8.5064e-05
14 *410:A3 *75:12 5.16474e-05
15 *410:A3 *85:8 5.61417e-05
16 *410:A3 *86:16 0.000143821
17 *410:A3 *124:40 5.16466e-05
18 *410:A3 *125:10 0.000166285
19 *410:A3 *137:72 0.000484766
20 *410:A3 *143:22 2.94871e-05
*RES
1 *405:Y *410:A3 49.3143 
*END

*D_NET *32 0.00541873
*CONN
*I *407:B2 I *D sky130_fd_sc_hd__o22a_1
*I *406:Y O *D sky130_fd_sc_hd__a21oi_1
*CAP
1 *407:B2 0
2 *406:Y 0.00081539
3 *32:18 0.00081539
4 *32:18 *407:A1 8.5316e-05
5 *32:18 *407:B1 3.50166e-05
6 *32:18 *421:B 0.000152333
7 *32:18 *433:A2 0.000208627
8 *32:18 *33:16 0.000223547
9 *32:18 *46:26 0.000548954
10 *32:18 *54:24 0.000118344
11 *32:18 *65:71 7.05143e-06
12 *32:18 *128:14 9.44308e-05
13 *32:18 *129:14 3.15243e-05
14 *32:18 *136:22 0.00014784
15 *32:18 *152:10 0.000101908
16 *32:18 *152:25 9.27562e-05
17 *32:18 *153:16 0.000976148
18 *32:18 *153:31 0.000643361
19 *439:A *32:18 0.000158593
20 *444:A *32:18 0.000162204
*RES
1 *406:Y *32:18 46.2821 
2 *32:18 *407:B2 9.3 
*END

*D_NET *33 0.00809105
*CONN
*I *409:B1 I *D sky130_fd_sc_hd__a311o_1
*I *407:X O *D sky130_fd_sc_hd__o22a_1
*CAP
1 *409:B1 0.00087567
2 *407:X 0.000775816
3 *33:16 0.00165149
4 *409:B1 *409:A1 4.6025e-06
5 *409:B1 *409:A2 0.000532578
6 *409:B1 *81:12 0
7 *409:B1 *131:14 7.96867e-06
8 *33:16 *407:B1 9.99853e-05
9 *33:16 *65:54 0.00126973
10 *33:16 *128:14 1.10868e-05
11 *33:16 *129:14 0.000386504
12 *33:16 *131:14 0.000678144
13 *33:16 *131:40 0.00107092
14 *33:16 *131:53 0.000227068
15 *33:16 *145:26 0.000235963
16 *439:A *33:16 3.9979e-05
17 *32:18 *33:16 0.000223547
*RES
1 *407:X *33:16 48.9339 
2 *33:16 *409:B1 29.9339 
*END

*D_NET *34 0.00162798
*CONN
*I *409:C1 I *D sky130_fd_sc_hd__a311o_1
*I *408:Y O *D sky130_fd_sc_hd__nor2_1
*CAP
1 *409:C1 0.000288496
2 *408:Y 0.000288496
3 *409:C1 *394:B1 8.14614e-06
4 *409:C1 *409:A2 9.87041e-05
5 *409:C1 *150:22 0.00018528
6 *409:C1 *151:8 0.000694782
7 *409:C1 *152:48 6.40766e-05
*RES
1 *408:Y *409:C1 36.0643 
*END

*D_NET *35 0.00620724
*CONN
*I *410:B1 I *D sky130_fd_sc_hd__a31o_1
*I *409:X O *D sky130_fd_sc_hd__a311o_1
*CAP
1 *410:B1 0.00171085
2 *409:X 0.00171085
3 *410:B1 *351:B1 0.000257639
4 *410:B1 *354:B2 4.98422e-05
5 *410:B1 *377:A 0.000905137
6 *410:B1 *409:A3 0.000509474
7 *410:B1 *411:B1 0.000191972
8 *410:B1 *430:A1 0.000137321
9 *410:B1 *80:14 8.42649e-05
10 *410:B1 *81:12 6.27272e-06
11 *410:B1 *109:30 5.96008e-05
12 *410:B1 *128:32 0.000502835
13 *410:B1 *137:72 7.75495e-06
14 *410:B1 *138:24 7.34183e-05
*RES
1 *409:X *410:B1 49.0895 
*END

*D_NET *36 0.00670571
*CONN
*I *412:B I *D sky130_fd_sc_hd__xnor2_1
*I *428:A2 I *D sky130_fd_sc_hd__o21ai_1
*I *411:X O *D sky130_fd_sc_hd__o21a_1
*CAP
1 *412:B 0.00074125
2 *428:A2 0
3 *411:X 0.000789078
4 *36:12 0.00153033
5 *412:B *344:C_N 1.32681e-05
6 *412:B *371:A2 0.000109263
7 *412:B *376:B1 2.09473e-05
8 *412:B *387:A2 6.72124e-05
9 *412:B *387:B1 0.000136676
10 *412:B *434:A1 0.00077351
11 *412:B *434:A2 0.000107996
12 *412:B *434:B1 6.8445e-06
13 *412:B *460:A 5.33005e-05
14 *412:B *58:20 0.000329443
15 *412:B *85:18 6.05161e-06
16 *412:B *136:46 5.05056e-05
17 *36:12 *392:A2 9.61591e-05
18 *36:12 *411:A2 0.000136785
19 *36:12 *419:A2 0.000318704
20 *36:12 *58:20 0.000463586
21 *36:12 *88:46 0.000262786
22 *36:12 *100:12 3.3743e-05
23 *36:12 *121:10 0.000270293
24 *36:12 *121:61 0.00038798
*RES
1 *411:X *36:12 33.6929 
2 *36:12 *428:A2 9.3 
3 *36:12 *412:B 31.6036 
*END

*D_NET *37 0.0130462
*CONN
*I *413:B I *D sky130_fd_sc_hd__xor2_1
*I *424:B I *D sky130_fd_sc_hd__and2_1
*I *412:Y O *D sky130_fd_sc_hd__xnor2_1
*CAP
1 *413:B 0.00011809
2 *424:B 0
3 *412:Y 0.00159858
4 *37:40 0.00106662
5 *37:22 0.00278329
6 *413:B *351:B1 1.97692e-05
7 *413:B *413:A 0.000190265
8 *413:B *89:16 0.000135795
9 *37:22 *342:B1 0.000130874
10 *37:22 *369:B1_N 0.00145635
11 *37:22 *60:122 0.000126423
12 *37:22 *69:28 9.25909e-05
13 *37:22 *113:28 0.000688931
14 *37:22 *129:64 4.65519e-05
15 *37:22 *130:14 0.000259951
16 *37:22 *130:81 0.000466963
17 *37:22 *143:22 5.00194e-05
18 *37:22 *150:47 0.000127435
19 *37:40 *343:A2 0.000385432
20 *37:40 *351:B1 4.01462e-06
21 *37:40 *365:B1 0.000204662
22 *37:40 *366:B2 0.0004529
23 *37:40 *369:A1 0.000293305
24 *37:40 *407:A1 9.59145e-05
25 *37:40 *413:A 4.00349e-05
26 *37:40 *431:A 0.000289297
27 *37:40 *78:70 0.000221024
28 *37:40 *88:10 0.000845938
29 *37:40 *88:46 6.90348e-06
30 *37:40 *122:6 0.000220987
31 *37:40 *122:19 4.17702e-05
32 *37:40 *130:14 0.00026023
33 *37:40 *134:33 3.59582e-05
34 *37:40 *135:23 7.84906e-05
35 *37:40 *135:27 2.59093e-05
36 *37:40 *148:14 7.6644e-05
37 *37:40 *152:25 5.50052e-05
38 *37:40 *154:27 5.33005e-05
*RES
1 *412:Y *37:22 33.3174 
2 *37:22 *37:40 41.5268 
3 *37:40 *424:B 9.3 
4 *37:22 *413:B 16.5054 
*END

*D_NET *38 0.00666345
*CONN
*I *417:B1 I *D sky130_fd_sc_hd__o311a_4
*I *416:A I *D sky130_fd_sc_hd__or2_1
*I *413:X O *D sky130_fd_sc_hd__xor2_1
*CAP
1 *417:B1 0.000526059
2 *416:A 0.000199828
3 *413:X 0.00119699
4 *38:14 0.00192287
5 *416:A *353:B1 0.000384929
6 *416:A *416:B 0.000318875
7 *416:A *42:8 0
8 *417:B1 *353:B1 7.74135e-05
9 *417:B1 *415:B1 0.000227713
10 *417:B1 *417:A2 9.86486e-06
11 *417:B1 *417:A3 3.19386e-05
12 *417:B1 *417:C1 0.00014285
13 *417:B1 *42:8 0
14 *417:B1 *73:14 1.83671e-05
15 *417:B1 *124:40 0
16 *38:14 *358:B1_N 0.000181114
17 *38:14 *368:A2 0.00065011
18 *38:14 *67:26 3.07021e-05
19 *38:14 *74:16 0.0001445
20 *38:14 *128:79 0.000524835
21 *38:14 *143:22 7.44888e-05
*RES
1 *413:X *38:14 39.5679 
2 *38:14 *416:A 19.0857 
3 *38:14 *417:B1 23.1393 
*END

*D_NET *39 0.0118641
*CONN
*I *417:A2 I *D sky130_fd_sc_hd__o311a_4
*I *415:A3 I *D sky130_fd_sc_hd__o31a_1
*I *414:X O *D sky130_fd_sc_hd__o21a_1
*CAP
1 *417:A2 0.000814542
2 *415:A3 5.41634e-05
3 *414:X 0.000990896
4 *39:32 0.00168862
5 *39:26 0.00181081
6 *415:A3 *60:112 0.000182806
7 *415:A3 *112:56 0.000226274
8 *417:A2 *354:B2 0.00011258
9 *417:A2 *368:A2 1.33008e-05
10 *417:A2 *415:B1 0.000202405
11 *417:A2 *417:A3 0.000196345
12 *417:A2 *417:C1 7.62237e-05
13 *417:A2 *457:A 0.000374353
14 *417:A2 *137:86 2.25243e-05
15 *39:26 *347:C 5.40624e-05
16 *39:26 *352:A 5.33005e-05
17 *39:26 *356:A3 5.37741e-06
18 *39:26 *357:B1_N 2.14879e-05
19 *39:26 *371:A1 1.21258e-05
20 *39:26 *371:A2 6.05161e-06
21 *39:26 *371:B1_N 5.33005e-05
22 *39:26 *393:B1 0.000153309
23 *39:26 *420:A1 0.000959805
24 *39:26 *422:A2 5.43018e-05
25 *39:26 *429:A 1.20043e-05
26 *39:26 *430:A1 0.00067831
27 *39:26 *60:37 0.000139281
28 *39:26 *60:54 5.96964e-05
29 *39:26 *63:34 1.23328e-05
30 *39:26 *109:30 4.12952e-05
31 *39:26 *134:74 4.45982e-06
32 *39:32 *347:A 1.77672e-05
33 *39:32 *381:B2 0.000216859
34 *39:32 *390:A 0.000111935
35 *39:32 *404:C1 0.00027095
36 *39:32 *423:A1 7.94289e-05
37 *39:32 *457:A 0
38 *39:32 *459:A 4.28365e-05
39 *39:32 *462:A 0.000360018
40 *39:32 *53:39 0.000537668
41 *39:32 *60:37 0.000325233
42 *39:32 *112:56 0.000265445
43 out[2] *39:32 0.000135925
44 out[3] *39:32 0.000198044
45 out[5] *39:32 2.18087e-05
46 *417:B1 *417:A2 9.86486e-06
47 *30:20 *39:32 0.000183948
*RES
1 *414:X *39:26 39.0401 
2 *39:26 *39:32 29.0714 
3 *39:32 *415:A3 11.4786 
4 *39:32 *417:A2 33.9964 
*END

*D_NET *40 0.00095579
*CONN
*I *416:B I *D sky130_fd_sc_hd__or2_1
*I *415:X O *D sky130_fd_sc_hd__o31a_1
*CAP
1 *416:B 0.000206186
2 *415:X 0.000206186
3 *416:B *405:A1 2.59355e-05
4 *416:B *42:8 6.19639e-06
5 *416:B *102:34 0.000110206
6 *416:B *119:10 1.85986e-05
7 *416:B *119:75 6.36058e-05
8 *416:A *416:B 0.000318875
*RES
1 *415:X *416:B 32.5107 
*END

*D_NET *41 0.00341327
*CONN
*I *423:A1 I *D sky130_fd_sc_hd__a21o_1
*I *416:X O *D sky130_fd_sc_hd__or2_1
*CAP
1 *423:A1 0.000533644
2 *416:X 0.000533644
3 *423:A1 *368:A2 2.79421e-05
4 *423:A1 *381:B2 0.000219289
5 *423:A1 *405:A1 0.000426985
6 *423:A1 *420:A2 1.00733e-05
7 *423:A1 *420:B2 0
8 *423:A1 *423:B1 3.51323e-05
9 *423:A1 *457:A 8.70933e-06
10 *423:A1 *44:34 0.000604291
11 *423:A1 *53:39 0.000487402
12 *423:A1 *60:88 0.00018372
13 *423:A1 *92:32 5.33005e-05
14 *423:A1 *139:24 0.00020971
15 *39:32 *423:A1 7.94289e-05
*RES
1 *416:X *423:A1 44.225 
*END

*D_NET *42 0.0157719
*CONN
*I *431:B I *D sky130_fd_sc_hd__or3_4
*I *430:A2 I *D sky130_fd_sc_hd__o21ai_1
*I *418:B I *D sky130_fd_sc_hd__nor2_1
*I *417:X O *D sky130_fd_sc_hd__o311a_4
*CAP
1 *431:B 0.00137194
2 *430:A2 0.000183663
3 *418:B 0.00062862
4 *417:X 0.000296016
5 *42:20 0.0016014
6 *42:8 0.00245707
7 *418:B *341:A1 0.00022367
8 *418:B *397:A3 0.000450467
9 *418:B *429:B 2.82463e-05
10 *418:B *46:26 0.0001346
11 *418:B *63:34 0.000215088
12 *418:B *63:36 0.000392184
13 *418:B *65:34 1.21576e-05
14 *418:B *102:34 0.000263431
15 *418:B *150:34 0
16 *418:B *155:52 0.000144945
17 *430:A2 *393:A2 1.90936e-05
18 *430:A2 *420:A2 4.65519e-05
19 *430:A2 *429:A 4.35597e-05
20 *430:A2 *429:B 3.90458e-05
21 *430:A2 *430:B1 5.33005e-05
22 *430:A2 *71:40 7.69776e-06
23 *430:A2 *102:34 4.90884e-05
24 *431:B *354:B2 0.000690312
25 *431:B *358:A2 0.000713571
26 *431:B *369:B1_N 6.66237e-05
27 *431:B *379:A2 0.000624351
28 *431:B *382:A1 3.10819e-05
29 *431:B *401:A 0.000139113
30 *431:B *411:A2 0.000116226
31 *431:B *53:39 1.24548e-05
32 *431:B *88:19 4.58194e-05
33 *431:B *88:46 2.23592e-05
34 *431:B *113:28 0.00017612
35 *431:B *121:61 0.000207867
36 *431:B *128:79 0.000978091
37 *431:B *131:64 0.000127894
38 *431:B *138:24 3.45371e-05
39 *431:B *155:18 4.97121e-06
40 *42:8 *119:75 4.00349e-05
41 *42:8 *124:40 0.000405389
42 *42:20 *422:A2 6.69701e-05
43 *42:20 *459:A 4.79414e-05
44 *42:20 *62:28 0.000113877
45 *42:20 *84:28 4.65519e-05
46 *42:20 *92:32 0.000300949
47 *42:20 *102:34 5.307e-05
48 *42:20 *106:34 0.00112077
49 *42:20 *119:10 0.00019897
50 *42:20 *119:20 1.90936e-05
51 *42:20 *119:75 0.00013781
52 *42:20 *124:27 8.61512e-05
53 *42:20 *124:40 0.000282578
54 *42:20 *132:36 0.000192305
55 *416:A *42:8 0
56 *416:B *42:8 6.19639e-06
57 *417:B1 *42:8 0
*RES
1 *417:X *42:8 19.5411 
2 *42:8 *42:20 17.7924 
3 *42:20 *418:B 26.3626 
4 *42:20 *430:A2 19.0711 
5 *42:8 *431:B 31.0521 
*END

*D_NET *43 0.00520144
*CONN
*I *423:A2 I *D sky130_fd_sc_hd__a21o_1
*I *418:Y O *D sky130_fd_sc_hd__nor2_1
*CAP
1 *423:A2 0.0013765
2 *418:Y 0.0013765
3 *423:A2 *375:A 7.83873e-05
4 *423:A2 *381:B1 1.16834e-05
5 *423:A2 *397:A3 8.04197e-05
6 *423:A2 *414:A2 0.000145696
7 *423:A2 *420:A2 8.50487e-05
8 *423:A2 *429:B 0.000267928
9 *423:A2 *434:A3 1.74236e-05
10 *423:A2 *45:34 0.000268005
11 *423:A2 *53:39 1.46126e-05
12 *423:A2 *59:26 8.91442e-05
13 *423:A2 *63:36 3.11088e-05
14 *423:A2 *67:26 1.00609e-05
15 *423:A2 *78:10 7.69776e-06
16 *423:A2 *78:23 3.47641e-06
17 *423:A2 *78:33 1.10782e-05
18 *423:A2 *113:28 0.000886048
19 *423:A2 *132:36 0.000130467
20 *423:A2 *155:38 0.000168655
21 *423:A2 *155:52 0.000141498
*RES
1 *418:Y *423:A2 42.0097 
*END

*D_NET *44 0.00905279
*CONN
*I *420:B2 I *D sky130_fd_sc_hd__o22a_1
*I *419:Y O *D sky130_fd_sc_hd__a21oi_1
*CAP
1 *420:B2 6.15605e-05
2 *419:Y 0.00203761
3 *44:34 0.00209917
4 *420:B2 *420:A2 6.07874e-05
5 *420:B2 *420:B1 5.33005e-05
6 *420:B2 *423:B1 0.000135028
7 *44:34 *345:A 8.19408e-05
8 *44:34 *347:C 8.58472e-05
9 *44:34 *404:A1 0.000136676
10 *44:34 *459:A 6.43445e-05
11 *44:34 *45:34 2.06112e-05
12 *44:34 *53:39 2.3179e-05
13 *44:34 *57:28 0.000108547
14 *44:34 *62:28 5.2908e-05
15 *44:34 *67:26 0.000337832
16 *44:34 *78:23 4.98082e-05
17 *44:34 *78:70 9.66602e-05
18 *44:34 *84:28 0.000161228
19 *44:34 *94:37 2.41063e-05
20 *44:34 *121:52 0.000257628
21 *44:34 *126:44 0.00105014
22 *44:34 *129:43 0.000151772
23 *44:34 *129:72 0.00069004
24 *44:34 *130:28 4.65519e-05
25 *44:34 *134:106 2.75711e-05
26 *44:34 *139:24 0.000315598
27 *44:34 *140:26 8.94491e-05
28 *44:34 *151:75 3.72851e-05
29 *44:34 *152:58 2.69757e-05
30 *44:34 *152:91 6.43445e-05
31 *423:A1 *420:B2 0
32 *423:A1 *44:34 0.000604291
*RES
1 *419:Y *44:34 45.963 
2 *44:34 *420:B2 15.5857 
*END

*D_NET *45 0.00473508
*CONN
*I *422:B1 I *D sky130_fd_sc_hd__a311o_1
*I *420:X O *D sky130_fd_sc_hd__o22a_1
*CAP
1 *422:B1 0
2 *420:X 0.0010695
3 *45:34 0.0010695
4 *45:34 *356:A3 8.29067e-05
5 *45:34 *371:A2 0.000104707
6 *45:34 *375:A 3.97677e-05
7 *45:34 *376:A2 8.99263e-05
8 *45:34 *381:B1 4.04035e-05
9 *45:34 *397:A3 0.000105924
10 *45:34 *422:A2 9.99853e-05
11 *45:34 *423:B1 0.000453361
12 *45:34 *63:34 4.65158e-06
13 *45:34 *78:23 2.06112e-05
14 *45:34 *78:33 0.000656665
15 *45:34 *102:34 7.20217e-06
16 *45:34 *132:36 0.000130467
17 *45:34 *148:38 5.33005e-05
18 *45:34 *148:45 0.000136682
19 *45:34 *150:34 0.000161241
20 *45:34 *150:47 0.000119665
21 *423:A2 *45:34 0.000268005
22 *44:34 *45:34 2.06112e-05
*RES
1 *420:X *45:34 49.0344 
2 *45:34 *422:B1 9.3 
*END

*D_NET *46 0.0100223
*CONN
*I *422:C1 I *D sky130_fd_sc_hd__a311o_1
*I *421:Y O *D sky130_fd_sc_hd__nor2_1
*CAP
1 *422:C1 0
2 *421:Y 0.00207886
3 *46:26 0.00207886
4 *46:26 *378:B 4.39032e-05
5 *46:26 *397:A3 0.000543075
6 *46:26 *421:A 6.05161e-06
7 *46:26 *421:B 1.58163e-05
8 *46:26 *422:A1 2.83284e-06
9 *46:26 *429:A 0.00217355
10 *46:26 *432:A2 0
11 *46:26 *59:26 3.10346e-05
12 *46:26 *60:54 0
13 *46:26 *64:14 0.00118368
14 *46:26 *64:51 0.000365299
15 *46:26 *65:34 4.15592e-05
16 *46:26 *102:34 0.000225347
17 *46:26 *136:22 0.000340066
18 *46:26 *155:52 9.56359e-05
19 *418:B *46:26 0.0001346
20 *444:A *46:26 0.000113123
21 *451:A *46:26 0
22 *32:18 *46:26 0.000548954
*RES
1 *421:Y *46:26 48.1179 
2 *46:26 *422:C1 13.8 
*END

*D_NET *47 0.00392256
*CONN
*I *423:B1 I *D sky130_fd_sc_hd__a21o_1
*I *422:X O *D sky130_fd_sc_hd__a311o_1
*CAP
1 *423:B1 0.000879126
2 *422:X 0.000879126
3 *423:B1 *342:B1 0.000248393