*SPEF "ieee 1481-1999"
*DESIGN "ALU"
*DATE "23:49:13 Wednesday May 07, 2025"
*VENDOR "The OpenROAD Project"
*PROGRAM "OpenROAD"
*VERSION "b16bda7e82721d10566ff7e2b68f1ff0be9f9e38"
*DESIGN_FLOW "NAME_SCOPE LOCAL" "PIN_CAP NONE"
*DIVIDER /
*DELIMITER :
*BUS_DELIMITER []
*T_UNIT 1 NS
*C_UNIT 1 PF
*R_UNIT 1 OHM
*L_UNIT 1 HENRY

*NAME_MAP
*1 A[0]
*2 A[1]
*3 A[2]
*4 A[3]
*5 A[4]
*6 A[5]
*7 A[6]
*8 A[7]
*9 B[0]
*10 B[1]
*11 B[2]
*12 B[3]
*13 B[4]
*14 B[5]
*15 B[6]
*16 B[7]
*19 opcode[0]
*20 opcode[1]
*21 opcode[2]
*22 out[0]
*23 out[1]
*24 out[2]
*25 out[3]
*26 out[4]
*27 out[5]
*28 out[6]
*29 out[7]
*30 _000_
*31 _001_
*32 _002_
*33 _003_
*34 _004_
*35 _005_
*36 _006_
*37 _007_
*38 _008_
*39 _009_
*40 _010_
*41 _011_
*42 _012_
*43 _013_
*44 _014_
*45 _015_
*46 _016_
*47 _017_
*48 _018_
*49 _019_
*50 _020_
*51 _021_
*52 _022_
*53 _023_
*54 _024_
*55 _025_
*56 _026_
*57 _027_
*58 _028_
*59 _029_
*60 _030_
*61 _031_
*62 _032_
*63 _033_
*64 _034_
*65 _035_
*66 _036_
*67 _037_
*68 _038_
*69 _039_
*70 _040_
*71 _041_
*72 _042_
*73 _043_
*74 _044_
*75 _045_
*76 _046_
*77 _047_
*78 _048_
*79 _049_
*80 _050_
*81 _051_
*82 _052_
*83 _053_
*84 _054_
*85 _055_
*86 _056_
*87 _057_
*88 _058_
*89 _059_
*90 _060_
*91 _061_
*92 _062_
*93 _063_
*94 _064_
*95 _065_
*96 _066_
*97 _067_
*98 _068_
*99 _069_
*100 _070_
*101 _071_
*102 _072_
*103 _073_
*104 _074_
*105 _075_
*106 _076_
*107 _077_
*108 _078_
*109 _079_
*110 _080_
*111 _081_
*112 _082_
*113 _083_
*114 _084_
*115 _085_
*116 _086_
*117 _087_
*118 _088_
*119 _089_
*120 _090_
*121 _091_
*122 _092_
*123 _093_
*124 _094_
*125 _095_
*126 net1
*127 net10
*128 net11
*129 net12
*130 net13
*131 net14
*132 net15
*133 net16
*134 net17
*135 net18
*136 net19
*137 net2
*138 net20
*139 net21
*140 net22
*141 net23
*142 net24
*143 net25
*144 net26
*145 net27
*146 net28
*147 net29
*148 net3
*149 net30
*150 net4
*151 net5
*152 net6
*153 net7
*154 net8
*155 net9
*156 ANTENNA_1
*157 FILLER_0_0_14
*158 FILLER_0_0_26
*159 FILLER_0_0_29
*160 FILLER_0_0_41
*161 FILLER_0_0_53
*162 FILLER_0_0_71
*163 FILLER_0_0_83
*164 FILLER_0_0_85
*165 FILLER_0_10_100
*166 FILLER_0_10_11
*167 FILLER_0_10_23
*168 FILLER_0_10_27
*169 FILLER_0_10_29
*170 FILLER_0_10_35
*171 FILLER_0_10_39
*172 FILLER_0_10_46
*173 FILLER_0_10_58
*174 FILLER_0_10_64
*175 FILLER_0_10_72
*176 FILLER_0_10_80
*177 FILLER_0_10_85
*178 FILLER_0_10_94
*179 FILLER_0_11_40
*180 FILLER_0_11_57
*181 FILLER_0_11_65
*182 FILLER_0_11_81
*183 FILLER_0_11_92
*184 FILLER_0_11_98
*185 FILLER_0_12_20
*186 FILLER_0_12_29
*187 FILLER_0_12_37
*188 FILLER_0_12_55
*189 FILLER_0_12_76
*190 FILLER_0_12_99
*191 FILLER_0_13_22
*192 FILLER_0_13_29
*193 FILLER_0_13_41
*194 FILLER_0_13_53
*195 FILLER_0_13_61
*196 FILLER_0_13_85
*197 FILLER_0_13_93
*198 FILLER_0_1_11
*199 FILLER_0_1_23
*200 FILLER_0_1_35
*201 FILLER_0_1_47
*202 FILLER_0_1_55
*203 FILLER_0_1_57
*204 FILLER_0_1_76
*205 FILLER_0_1_82
*206 FILLER_0_1_89
*207 FILLER_0_1_93
*208 FILLER_0_2_100
*209 FILLER_0_2_15
*210 FILLER_0_2_29
*211 FILLER_0_2_41
*212 FILLER_0_2_45
*213 FILLER_0_2_58
*214 FILLER_0_2_7
*215 FILLER_0_2_70
*216 FILLER_0_2_82
*217 FILLER_0_2_85
*218 FILLER_0_3_19
*219 FILLER_0_3_23
*220 FILLER_0_3_28
*221 FILLER_0_3_40
*222 FILLER_0_3_52
*223 FILLER_0_3_63
*224 FILLER_0_3_7
*225 FILLER_0_3_71
*226 FILLER_0_3_80
*227 FILLER_0_3_85
*228 FILLER_0_3_93
*229 FILLER_0_3_97
*230 FILLER_0_4_11
*231 FILLER_0_4_17
*232 FILLER_0_4_26
*233 FILLER_0_4_32
*234 FILLER_0_4_44
*235 FILLER_0_4_57
*236 FILLER_0_4_7
*237 FILLER_0_4_79
*238 FILLER_0_4_83
*239 FILLER_0_4_85
*240 FILLER_0_4_89
*241 FILLER_0_5_19
*242 FILLER_0_5_31
*243 FILLER_0_5_39
*244 FILLER_0_5_57
*245 FILLER_0_5_69
*246 FILLER_0_5_77
*247 FILLER_0_5_90
*248 FILLER_0_6_101
*249 FILLER_0_6_17
*250 FILLER_0_6_22
*251 FILLER_0_6_29
*252 FILLER_0_6_34
*253 FILLER_0_6_46
*254 FILLER_0_6_53
*255 FILLER_0_6_57
*256 FILLER_0_6_65
*257 FILLER_0_6_72
*258 FILLER_0_6_9
*259 FILLER_0_7_101
*260 FILLER_0_7_11
*261 FILLER_0_7_23
*262 FILLER_0_7_38
*263 FILLER_0_7_48
*264 FILLER_0_7_62
*265 FILLER_0_7_83
*266 FILLER_0_8_10
*267 FILLER_0_8_19
*268 FILLER_0_8_27
*269 FILLER_0_8_3
*270 FILLER_0_8_45
*271 FILLER_0_8_57
*272 FILLER_0_8_80
*273 FILLER_0_8_89
*274 FILLER_0_9_24
*275 FILLER_0_9_36
*276 FILLER_0_9_46
*277 FILLER_0_9_52
*278 FILLER_0_9_70
*279 FILLER_0_9_97
*280 PHY_EDGE_ROW_0_Left_14
*281 PHY_EDGE_ROW_0_Right_0
*282 PHY_EDGE_ROW_10_Left_24
*283 PHY_EDGE_ROW_10_Right_10
*284 PHY_EDGE_ROW_11_Left_25
*285 PHY_EDGE_ROW_11_Right_11
*286 PHY_EDGE_ROW_12_Left_26
*287 PHY_EDGE_ROW_12_Right_12
*288 PHY_EDGE_ROW_13_Left_27
*289 PHY_EDGE_ROW_13_Right_13
*290 PHY_EDGE_ROW_1_Left_15
*291 PHY_EDGE_ROW_1_Right_1
*292 PHY_EDGE_ROW_2_Left_16
*293 PHY_EDGE_ROW_2_Right_2
*294 PHY_EDGE_ROW_3_Left_17
*295 PHY_EDGE_ROW_3_Right_3
*296 PHY_EDGE_ROW_4_Left_18
*297 PHY_EDGE_ROW_4_Right_4
*298 PHY_EDGE_ROW_5_Left_19
*299 PHY_EDGE_ROW_5_Right_5
*300 PHY_EDGE_ROW_6_Left_20
*301 PHY_EDGE_ROW_6_Right_6
*302 PHY_EDGE_ROW_7_Left_21
*303 PHY_EDGE_ROW_7_Right_7
*304 PHY_EDGE_ROW_8_Left_22
*305 PHY_EDGE_ROW_8_Right_8
*306 PHY_EDGE_ROW_9_Left_23
*307 PHY_EDGE_ROW_9_Right_9
*308 TAP_TAPCELL_ROW_0_28
*309 TAP_TAPCELL_ROW_0_29
*310 TAP_TAPCELL_ROW_0_30
*311 TAP_TAPCELL_ROW_10_44
*312 TAP_TAPCELL_ROW_10_45
*313 TAP_TAPCELL_ROW_11_46
*314 TAP_TAPCELL_ROW_12_47
*315 TAP_TAPCELL_ROW_12_48
*316 TAP_TAPCELL_ROW_13_49
*317 TAP_TAPCELL_ROW_13_50
*318 TAP_TAPCELL_ROW_13_51
*319 TAP_TAPCELL_ROW_1_31
*320 TAP_TAPCELL_ROW_2_32
*321 TAP_TAPCELL_ROW_2_33
*322 TAP_TAPCELL_ROW_3_34
*323 TAP_TAPCELL_ROW_4_35
*324 TAP_TAPCELL_ROW_4_36
*325 TAP_TAPCELL_ROW_5_37
*326 TAP_TAPCELL_ROW_6_38
*327 TAP_TAPCELL_ROW_6_39
*328 TAP_TAPCELL_ROW_7_40
*329 TAP_TAPCELL_ROW_8_41
*330 TAP_TAPCELL_ROW_8_42
*331 TAP_TAPCELL_ROW_9_43
*332 _096_
*333 _097_
*334 _098_
*335 _099_
*336 _100_
*337 _101_
*338 _102_
*339 _103_
*340 _104_
*341 _105_
*342 _106_
*343 _107_
*344 _108_
*345 _109_
*346 _110_
*347 _111_
*348 _112_
*349 _113_
*350 _114_
*351 _115_
*352 _116_
*353 _117_
*354 _118_
*355 _119_
*356 _120_
*357 _121_
*358 _122_
*359 _123_
*360 _124_
*361 _125_
*362 _126_
*363 _127_
*364 _128_
*365 _129_
*366 _130_
*367 _131_
*368 _132_
*369 _133_
*370 _134_
*371 _135_
*372 _136_
*373 _137_
*374 _138_
*375 _139_
*376 _140_
*377 _141_
*378 _142_
*379 _143_
*380 _144_
*381 _145_
*382 _146_
*383 _147_
*384 _148_
*385 _149_
*386 _150_
*387 _151_
*388 _152_
*389 _153_
*390 _154_
*391 _155_
*392 _156_
*393 _157_
*394 _158_
*395 _159_
*396 _160_
*397 _161_
*398 _162_
*399 _163_
*400 _164_
*401 _165_
*402 _166_
*403 _167_
*404 _168_
*405 _169_
*406 _170_
*407 _171_
*408 _172_
*409 _173_
*410 _174_
*411 _175_
*412 _176_
*413 _177_
*414 _178_
*415 _179_
*416 _180_
*417 _181_
*418 _182_
*419 _183_
*420 _184_
*421 _185_
*422 _186_
*423 _187_
*424 _188_
*425 _189_
*426 _190_
*427 _191_
*428 _192_
*429 _193_
*430 _194_
*431 _195_
*432 _196_
*433 _197_
*434 _198_
*435 _199_
*436 clone1
*437 input1
*438 input10
*439 input11
*440 input12
*441 input13
*442 input14
*443 input15
*444 input16
*445 input17
*446 input18
*447 input19
*448 input2
*449 input3
*450 input4
*451 input5
*452 input6
*453 input7
*454 input8
*455 input9
*456 output20
*457 output21
*458 output22
*459 output23
*460 output24
*461 output25
*462 output26
*463 output27
*464 rebuffer2
*465 rebuffer3

*PORTS
A[0] I
A[1] I
A[2] I
A[3] I
A[4] I
A[5] I
A[6] I
A[7] I
B[0] I
B[1] I
B[2] I
B[3] I
B[4] I
B[5] I
B[6] I
B[7] I
opcode[0] I
opcode[1] I
opcode[2] I
out[0] O
out[1] O
out[2] O
out[3] O
out[4] O
out[5] O
out[6] O
out[7] O

*D_NET *1 0.000752994
*CONN
*P A[0] I
*I *437:A I *D sky130_fd_sc_hd__dlymetal6s2s_1
*CAP
1 A[0] 0.000300616
2 *437:A 0.000300616
3 *437:A *372:A_N 1.14169e-05
4 *437:A *444:A 3.8964e-05
5 *437:A *448:A 4.01059e-05
6 *437:A *131:14 6.12746e-05
*RES
1 A[0] *437:A 7.8543 
*END

*D_NET *2 0.000767534
*CONN
*P A[1] I
*I *448:A I *D sky130_fd_sc_hd__clkbuf_2
*CAP
1 A[1] 0.000322009
2 *448:A 0.000322009
3 *448:A *449:A 3.55714e-05
4 *448:A *131:14 4.78386e-05
5 *437:A *448:A 4.01059e-05
*RES
1 A[1] *448:A 7.9443 
*END

*D_NET *3 0.000993864
*CONN
*P A[2] I
*I *449:A I *D sky130_fd_sc_hd__clkbuf_2
*CAP
1 A[2] 0.000308421
2 *449:A 0.000308421
3 *449:A *450:A 3.8964e-05
4 *449:A *451:A 0
5 *449:A *65:54 0.000108603
6 *449:A *153:16 0.000193883
7 *448:A *449:A 3.55714e-05
*RES
1 A[2] *449:A 6.94503 
*END

*D_NET *4 0.000769855
*CONN
*P A[3] I
*I *450:A I *D sky130_fd_sc_hd__clkbuf_2
*CAP
1 A[3] 0.000323741
2 *450:A 0.000323741
3 *450:A *451:A 3.55714e-05
4 *450:A *131:14 4.78386e-05
5 *449:A *450:A 3.8964e-05
*RES
1 A[3] *450:A 7.9443 
*END

*D_NET *5 0.00128544
*CONN
*P A[4] I
*I *451:A I *D sky130_fd_sc_hd__clkbuf_2
*CAP
1 A[4] 0.000491694
2 *451:A 0.000491694
3 *451:A *422:C1 0
4 *451:A *435:A2 7.5396e-05
5 *451:A *452:A 3.8964e-05
6 *451:A *453:A 0
7 *451:A *463:A 0
8 *451:A *152:10 0.00015212
9 *449:A *451:A 0
10 *450:A *451:A 3.55714e-05
*RES
1 A[4] *451:A 6.9231 
*END

*D_NET *6 0.000917341
*CONN
*P A[5] I
*I *452:A I *D sky130_fd_sc_hd__clkbuf_2
*CAP
1 A[5] 0.000259922
2 *452:A 0.000259922
3 *452:A *453:A 0.000358533
4 *451:A *452:A 3.8964e-05
*RES
1 A[5] *452:A 7.9443 
*END

*D_NET *7 0.00127549
*CONN
*P A[6] I
*I *453:A I *D sky130_fd_sc_hd__clkbuf_2
*CAP
1 A[6] 0.000402306
2 *453:A 0.000402306
3 *453:A *454:A 5.05583e-05
4 *453:A *131:14 0
5 *453:A *152:10 3.00381e-05
6 *453:A *153:16 3.17481e-05
7 *451:A *453:A 0
8 *452:A *453:A 0.000358533
*RES
1 A[6] *453:A 11.6804 
*END

*D_NET *8 0.00229801
*CONN
*P A[7] I
*I *454:A I *D sky130_fd_sc_hd__buf_1
*CAP
1 A[7] 0.00100581
2 *454:A 0.00100581
3 *454:A *356:A1 3.09164e-05
4 *454:A *463:A 0
5 *454:A *153:51 0.000204916
6 *453:A *454:A 5.05583e-05
*RES
1 A[7] *454:A 14.6573 
*END

*D_NET *9 0.000840184
*CONN
*P B[0] I
*I *455:A I *D sky130_fd_sc_hd__clkbuf_2
*CAP
1 B[0] 0.000314699
2 *455:A 0.000314699
3 *455:A *438:A 3.70626e-05
4 *455:A *447:A 0.000173724
*RES
1 B[0] *455:A 8.4543 
*END

*D_NET *10 0.000827162
*CONN
*P B[1] I
*I *438:A I *D sky130_fd_sc_hd__clkbuf_2
*CAP
1 B[1] 0.000258959
2 *438:A 0.000258959
3 *438:A *439:A 3.55714e-05
4 *438:A *447:A 0.000236609
5 *455:A *438:A 3.70626e-05
*RES
1 B[1] *438:A 7.9443 
*END

*D_NET *11 0.000980782
*CONN
*P B[2] I
*I *439:A I *D sky130_fd_sc_hd__clkbuf_2
*CAP
1 B[2] 0.000345691
2 *439:A 0.000345691
3 *439:A *407:A1 9.12857e-06
4 *439:A *407:B2 0.000144134
5 *439:A *409:B1 4.21317e-05
6 *439:A *435:A2 1.62118e-05
7 *439:A *440:A 4.22232e-05
8 *439:A *441:A 0
9 *438:A *439:A 3.55714e-05
*RES
1 B[2] *439:A 6.69003 
*END

*D_NET *12 0.000923911
*CONN
*P B[3] I
*I *440:A I *D sky130_fd_sc_hd__clkbuf_2
*CAP
1 B[3] 0.000261975
2 *440:A 0.000261975
3 *440:A *441:A 0.000264355
4 *440:A *129:14 8.53011e-05
5 *440:A *131:40 8.08153e-06
6 *439:A *440:A 4.22232e-05
*RES
1 B[3] *440:A 7.9443 
*END

*D_NET *13 0.00156492
*CONN
*P B[4] I
*I *441:A I *D sky130_fd_sc_hd__clkbuf_2
*CAP
1 B[4] 0.000458043
2 *441:A 0.000458043
3 *441:A *407:A1 1.79098e-05
4 *441:A *442:A 3.44257e-05
5 *441:A *443:A 0
6 *441:A *129:14 4.12775e-05
7 *441:A *131:40 0.000290864
8 *439:A *441:A 0
9 *440:A *441:A 0.000264355
*RES
1 B[4] *441:A 11.2437 
*END

*D_NET *14 0.000884325
*CONN
*P B[5] I
*I *442:A I *D sky130_fd_sc_hd__clkbuf_2
*CAP
1 B[5] 0.000238544
2 *442:A 0.000238544
3 *442:A *443:A 0.000309197
4 *442:A *131:8 6.36139e-05
5 *441:A *442:A 3.44257e-05
*RES
1 B[5] *442:A 7.4343 
*END

*D_NET *15 0.00129186
*CONN
*P B[6] I
*I *443:A I *D sky130_fd_sc_hd__clkbuf_2
*CAP
1 B[6] 0.000359895
2 *443:A 0.000359895
3 *443:A *444:A 5.05583e-05
4 *443:A *63:72 4.80285e-05
5 *443:A *131:8 8.73389e-06
6 *443:A *131:14 0.000111059
7 *443:A *131:40 4.44896e-05
8 *441:A *443:A 0
9 *442:A *443:A 0.000309197
*RES
1 B[6] *443:A 10.1504 
*END

*D_NET *16 0.00112908
*CONN
*P B[7] I
*I *444:A I *D sky130_fd_sc_hd__buf_1
*CAP
1 B[7] 0.000379757
2 *444:A 0.000379757
3 *444:A *407:B2 0.00014971
4 *444:A *422:C1 0.000104238
5 *444:A *129:43 0
6 *444:A *136:22 2.60986e-05
7 *437:A *444:A 3.8964e-05
8 *443:A *444:A 5.05583e-05
*RES
1 B[7] *444:A 6.55157 
*END

*D_NET *19 0.00122566
*CONN
*P opcode[0] I
*I *445:A I *D sky130_fd_sc_hd__buf_6
*CAP
1 opcode[0] 0.000425831
2 *445:A 0.000425831
3 *445:A *446:A 0.000374
*RES
1 opcode[0] *445:A 9.2181 
*END

*D_NET *20 0.00147106
*CONN
*P opcode[1] I
*I *446:A I *D sky130_fd_sc_hd__buf_4
*CAP
1 opcode[1] 0.00044747
2 *446:A 0.00044747
3 *446:A *447:A 4.4142e-05
4 *446:A *155:6 0.000157983
5 *445:A *446:A 0.000374
*RES
1 opcode[1] *446:A 9.75637 
*END

*D_NET *21 0.0011262
*CONN
*P opcode[2] I
*I *447:A I *D sky130_fd_sc_hd__buf_4
*CAP
1 opcode[2] 0.00031039
2 *447:A 0.00031039
3 *447:A *127:6 5.09431e-05
4 *438:A *447:A 0.000236609
5 *446:A *447:A 4.4142e-05
6 *455:A *447:A 0.000173724
*RES
1 opcode[2] *447:A 10.0604 
*END

*D_NET *22 0.0010062
*CONN
*P out[0] O
*I *456:X O *D sky130_fd_sc_hd__buf_2
*CAP
1 out[0] 0.000491678
2 *456:X 0.000491678
3 out[0] out[1] 0
4 out[0] *456:A 2.28415e-05
*RES
1 *456:X out[0] 9.49503 
*END

*D_NET *23 0.000811547
*CONN
*P out[1] O
*I *457:X O *D sky130_fd_sc_hd__buf_2
*CAP
1 out[1] 0.000291731
2 *457:X 0.000291731
3 out[1] out[2] 0
4 out[1] *410:A2 0.000117854
5 out[1] *456:A 9.90159e-05
6 out[1] *457:A 1.12156e-05
7 out[0] out[1] 0
*RES
1 *457:X out[1] 5.1381 
*END

*D_NET *24 0.000985587
*CONN
*P out[2] O
*I *458:X O *D sky130_fd_sc_hd__buf_2
*CAP
1 out[2] 0.000321436
2 *458:X 0.000321436
3 out[2] out[3] 0
4 out[2] *379:A2 9.50291e-05
5 out[2] *410:A2 0.000123954
6 out[2] *39:32 0.00012373
7 out[1] out[2] 0
*RES
1 *458:X out[2] 6.18003 
*END

*D_NET *25 0.00110968
*CONN
*P out[3] O
*I *459:X O *D sky130_fd_sc_hd__buf_2
*CAP
1 out[3] 0.000310424
2 *459:X 0.000310424
3 out[3] out[4] 0
4 out[3] *347:B 2.70068e-05
5 out[3] *410:A2 0.000180878
6 out[3] *39:32 0.000182602
7 out[3] *129:103 9.83476e-05
8 out[2] out[3] 0
*RES
1 *459:X out[3] 6.94503 
*END

*D_NET *26 0.00312942
*CONN
*P out[4] O
*I *460:X O *D sky130_fd_sc_hd__buf_2
*CAP
1 out[4] 0.00109607
2 *460:X 0.00109607
3 out[4] out[5] 0
4 out[4] *344:C_N 3.59531e-06
5 out[4] *368:B1 9.15032e-05
6 out[4] *368:C1 0.000205469
7 out[4] *381:B1 0.000241847
8 out[4] *429:B 7.48593e-05
9 out[4] *431:C 0
10 out[4] *78:33 8.6644e-05
11 out[4] *143:26 0.000214488
12 out[4] *150:47 1.88656e-05
13 out[3] out[4] 0
*RES
1 *460:X out[4] 6.66823 
*END

*D_NET *27 0.0005176
*CONN
*P out[5] O
*I *461:X O *D sky130_fd_sc_hd__buf_2
*CAP
1 out[5] 0.000239493
2 *461:X 0.000239493
3 out[5] out[6] 0
4 out[5] *39:32 1.97486e-05
5 out[5] *60:37 1.88656e-05
6 out[4] out[5] 0
*RES
1 *461:X out[5] 4.90503 
*END

*D_NET *28 0.00134448
*CONN
*P out[6] O
*I *462:X O *D sky130_fd_sc_hd__buf_2
*CAP
1 out[6] 0.000566404
2 *462:X 0.000566404
3 out[6] out[7] 0
4 out[6] *347:C 1.47131e-06
5 out[6] *371:B1_N 0
6 out[6] *385:B 0.000106915
7 out[6] *393:A1 0.000100593
8 out[6] *393:B1 0
9 out[6] *463:A 0
10 out[6] *151:58 2.69443e-06
11 out[5] out[6] 0
*RES
1 *462:X out[6] 6.27463 
*END

*D_NET *29 0.00180407
*CONN
*P out[7] O
*I *463:X O *D sky130_fd_sc_hd__buf_6
*CAP
1 out[7] 0.000762072
2 *463:X 0.000762072
3 out[7] *385:B 4.85494e-05
4 out[7] *393:A1 8.82557e-05
5 out[7] *393:B1 1.65324e-05
6 out[7] *463:A 0.000126586
7 out[6] out[7] 0
*RES
1 *463:X out[7] 12.3894 
*END

*D_NET *30 0.00878333
*CONN
*I *410:A2 I *D sky130_fd_sc_hd__a31o_1
*I *404:X O *D sky130_fd_sc_hd__a211o_1
*CAP
1 *410:A2 0.00166056
2 *404:X 0.00166056
3 *410:A2 *340:B_N 4.75545e-05
4 *410:A2 *347:A 0.000181396
5 *410:A2 *354:B2 1.81181e-05
6 *410:A2 *364:B1 1.97429e-05
7 *410:A2 *369:A2 1.88602e-05
8 *410:A2 *379:A2 0.000389404
9 *410:A2 *381:B2 0.00018955
10 *410:A2 *389:B 1.13341e-05
11 *410:A2 *390:B 0.000133067
12 *410:A2 *404:B1 5.74791e-05
13 *410:A2 *404:C1 7.30547e-05
14 *410:A2 *456:A 0.00015806
15 *410:A2 *458:A 0.00201476
16 *410:A2 *39:32 0.000179275
17 *410:A2 *127:84 1.46114e-05
18 *410:A2 *129:103 3.82728e-05
19 *410:A2 *137:72 0.000771215
20 *410:A2 *137:86 0.00072377
21 out[1] *410:A2 0.000117854
22 out[2] *410:A2 0.000123954
23 out[3] *410:A2 0.000180878
*RES
1 *404:X *410:A2 26.0873 
*END

*D_NET *31 0.00399863
*CONN
*I *410:A3 I *D sky130_fd_sc_hd__a31o_1
*I *405:Y O *D sky130_fd_sc_hd__o211ai_1
*CAP
1 *410:A3 0.000563149
2 *405:Y 0.000563149
3 *410:A3 *340:B_N 8.53011e-05
4 *410:A3 *346:A1 4.06801e-05
5 *410:A3 *346:A2 4.77769e-05
6 *410:A3 *346:B1 6.81824e-05
7 *410:A3 *348:A1 0.000147125
8 *410:A3 *349:C 0.000121029
9 *410:A3 *360:B 4.92972e-05
10 *410:A3 *411:B1 0.000380745
11 *410:A3 *417:A3 0.00020835
12 *410:A3 *72:6 0.000751077
13 *410:A3 *74:16 7.95015e-05
14 *410:A3 *75:12 5.01416e-05
15 *410:A3 *85:8 5.69798e-05
16 *410:A3 *86:16 0.000130905
17 *410:A3 *124:40 5.52759e-05
18 *410:A3 *125:10 0.000151543
19 *410:A3 *137:72 0.000419983
20 *410:A3 *143:26 2.84399e-05
*RES
1 *405:Y *410:A3 25.44 
*END

*D_NET *32 0.00488264
*CONN
*I *407:B2 I *D sky130_fd_sc_hd__o22a_1
*I *406:Y O *D sky130_fd_sc_hd__a21oi_1
*CAP
1 *407:B2 0.000689931
2 *406:Y 0.000689931
3 *407:B2 *407:A1 8.37938e-05
4 *407:B2 *407:B1 3.13354e-05
5 *407:B2 *409:B1 0.000194286
6 *407:B2 *421:B 0.000140905
7 *407:B2 *422:C1 0.000505696
8 *407:B2 *433:A2 0.000192583
9 *407:B2 *435:A2 0.000114655
10 *407:B2 *65:71 6.71803e-06
11 *407:B2 *128:14 8.90978e-05
12 *407:B2 *129:14 3.34515e-05
13 *407:B2 *136:22 0.00014979
14 *407:B2 *152:10 9.24825e-05
15 *407:B2 *152:25 8.41575e-05
16 *407:B2 *153:16 0.00089539
17 *407:B2 *153:31 0.000594593
18 *439:A *407:B2 0.000144134
19 *444:A *407:B2 0.00014971
*RES
1 *406:Y *407:B2 30.705 
*END

*D_NET *33 0.00727883
*CONN
*I *409:B1 I *D sky130_fd_sc_hd__a311o_1
*I *407:X O *D sky130_fd_sc_hd__o22a_1
*CAP
1 *409:B1 0.00143619
2 *407:X 0.00143619
3 *409:B1 *356:C1 0
4 *409:B1 *407:B1 8.64421e-05
5 *409:B1 *409:A1 4.55864e-06
6 *409:B1 *409:A2 0.000501623
7 *409:B1 *463:A 0.00022561
8 *409:B1 *65:54 0.00116803
9 *409:B1 *128:14 1.05984e-05
10 *409:B1 *129:14 0.000355896
11 *409:B1 *131:14 0.000651529
12 *409:B1 *131:40 0.00096895
13 *409:B1 *131:53 0.000196804
14 *407:B2 *409:B1 0.000194286
15 *439:A *409:B1 4.21317e-05
*RES
1 *407:X *409:B1 46.705 
*END

*D_NET *34 0.00143381
*CONN
*I *409:C1 I *D sky130_fd_sc_hd__a311o_1
*I *408:Y O *D sky130_fd_sc_hd__nor2_1
*CAP
1 *409:C1 0.000255774
2 *408:Y 0.000255774
3 *409:C1 *394:B1 8.78586e-06
4 *409:C1 *409:A2 9.22206e-05
5 *409:C1 *150:22 0.000160331
6 *409:C1 *151:8 0.000602298
7 *409:C1 *152:48 5.86304e-05
*RES
1 *408:Y *409:C1 14.31 
*END

*D_NET *35 0.00560466
*CONN
*I *410:B1 I *D sky130_fd_sc_hd__a31o_1
*I *409:X O *D sky130_fd_sc_hd__a311o_1
*CAP
1 *410:B1 0.00150677
2 *409:X 0.00150677
3 *410:B1 *351:B1 0.000256735
4 *410:B1 *354:B2 4.21127e-05
5 *410:B1 *356:B1 7.2823e-05
6 *410:B1 *356:C1 6.63219e-06
7 *410:B1 *377:A 0.000821742
8 *410:B1 *398:A 6.26891e-05
9 *410:B1 *409:A3 0.00050356
10 *410:B1 *411:B1 0.000172298
11 *410:B1 *430:A1 0.000115626
12 *410:B1 *456:A 7.11855e-05
13 *410:B1 *128:32 0.000457781
14 *410:B1 *137:72 7.93454e-06
*RES
1 *409:X *410:B1 15.6414 
*END

*D_NET *36 0.00584386
*CONN
*I *412:B I *D sky130_fd_sc_hd__xnor2_1
*I *428:A2 I *D sky130_fd_sc_hd__o21ai_1
*I *411:X O *D sky130_fd_sc_hd__o21a_1
*CAP
1 *412:B 0.000625674
2 *428:A2 0
3 *411:X 0.000656123
4 *36:12 0.0012818
5 *412:B *344:C_N 1.2976e-05
6 *412:B *371:A2 0.000104482
7 *412:B *376:B1 2.14483e-05
8 *412:B *387:A2 6.31625e-05
9 *412:B *387:B1 0.000119242
10 *412:B *434:A1 0.000674695
11 *412:B *434:A2 9.56742e-05
12 *412:B *434:B1 7.11235e-06
13 *412:B *435:B1 0.000287664
14 *412:B *460:A 4.66108e-05
15 *412:B *85:18 5.83121e-06
16 *412:B *136:46 4.66474e-05
17 *36:12 *377:B 3.42674e-05
18 *36:12 *392:A2 8.83851e-05
19 *36:12 *411:A2 0.000126006
20 *36:12 *419:A2 0.000293106
21 *36:12 *435:B1 0.000405121
22 *36:12 *88:46 0.000242923
23 *36:12 *121:10 0.000248465
24 *36:12 *121:61 0.000356445
*RES
1 *411:X *36:12 18.53 
2 *36:12 *428:A2 1.6 
3 *36:12 *412:B 16.775 
*END

*D_NET *37 0.0114165
*CONN
*I *413:B I *D sky130_fd_sc_hd__xor2_1
*I *424:B I *D sky130_fd_sc_hd__and2_1
*I *412:Y O *D sky130_fd_sc_hd__xnor2_1
*CAP
1 *413:B 9.57343e-05
2 *424:B 0.000887387
3 *412:Y 0.00138592
4 *37:22 0.00236904
5 *413:B *351:B1 2.00586e-05
6 *413:B *369:A2 0.000125244
7 *413:B *413:A 0.000175303
8 *424:B *343:A2 0.000336076
9 *424:B *351:B1 4.05129e-06
10 *424:B *365:B1 0.000188255
11 *424:B *366:B2 0.000418312
12 *424:B *369:A1 0.000270192
13 *424:B *407:A1 9.08874e-05
14 *424:B *413:A 3.69766e-05
15 *424:B *431:A 0.000278527
16 *424:B *78:70 0.000202698
17 *424:B *88:10 0.000779954
18 *424:B *88:46 7.59573e-06
19 *424:B *122:6 0.0001925
20 *424:B *122:19 3.63576e-05
21 *424:B *130:14 0.000227078
22 *424:B *134:33 3.69082e-05
23 *424:B *135:23 7.74685e-05
24 *424:B *135:27 2.50049e-05
25 *424:B *148:14 7.06865e-05
26 *424:B *152:25 4.77807e-05
27 *424:B *154:27 4.66108e-05
28 *37:22 *342:B1 0.000120758
29 *37:22 *343:B1 9.10699e-05
30 *37:22 *369:B1_N 0.00122627
31 *37:22 *391:B 0.000624518
32 *37:22 *60:122 0.000111711
33 *37:22 *129:64 3.92756e-05
34 *37:22 *130:14 0.000218441
35 *37:22 *130:81 0.000392467
36 *37:22 *143:26 4.2145e-05
37 *37:22 *150:47 0.000117273
*RES
1 *412:Y *37:22 10.4084 
2 *37:22 *424:B 31.1425 
3 *37:22 *413:B 5.8725 
*END

*D_NET *38 0.00584618
*CONN
*I *417:B1 I *D sky130_fd_sc_hd__o311a_4
*I *416:A I *D sky130_fd_sc_hd__or2_1
*I *413:X O *D sky130_fd_sc_hd__xor2_1
*CAP
1 *417:B1 0.000470641
2 *416:A 0.000164914
3 *413:X 0.00103252
4 *38:14 0.00166807
5 *416:A *353:B1 0.000352687
6 *416:A *416:B 0.000291889
7 *416:A *42:8 0
8 *417:B1 *353:B1 7.03276e-05
9 *417:B1 *415:B1 0.000198252
10 *417:B1 *417:A2 9.56017e-06
11 *417:B1 *417:A3 3.04168e-05
12 *417:B1 *417:C1 0.000124895
13 *417:B1 *42:8 0
14 *417:B1 *73:14 1.86904e-05
15 *417:B1 *124:40 0
16 *38:14 *341:B2 3.14086e-05
17 *38:14 *358:B1_N 0.000157401
18 *38:14 *368:A2 0.000564114
19 *38:14 *74:16 0.000136833
20 *38:14 *128:79 0.000455113
21 *38:14 *143:26 6.84448e-05
*RES
1 *413:X *38:14 21.685 
2 *38:14 *416:A 8.04 
3 *38:14 *417:B1 11.445 
*END

*D_NET *39 0.0105236
*CONN
*I *417:A2 I *D sky130_fd_sc_hd__o311a_4
*I *415:A3 I *D sky130_fd_sc_hd__o31a_1
*I *414:X O *D sky130_fd_sc_hd__o21a_1
*CAP
1 *417:A2 0.000726994
2 *415:A3 4.74101e-05
3 *414:X 0.00155116
4 *39:32 0.00232557
5 *415:A3 *60:112 0.00015856
6 *415:A3 *112:56 0.00019608
7 *417:A2 *354:B2 0.000102368
8 *417:A2 *368:A2 1.43998e-05
9 *417:A2 *415:B1 0.000189935
10 *417:A2 *417:A3 0.000171832
11 *417:A2 *417:C1 7.11301e-05
12 *417:A2 *457:A 0.000341205
13 *417:A2 *137:86 2.41926e-05
14 *39:32 *347:A 1.86688e-05
15 *39:32 *347:C 4.76884e-05
16 *39:32 *352:A 4.66108e-05
17 *39:32 *356:A3 5.18317e-06
18 *39:32 *357:B1_N 1.91843e-05
19 *39:32 *371:A1 1.19928e-05
20 *39:32 *371:A2 5.83121e-06
21 *39:32 *371:B1_N 4.66108e-05
22 *39:32 *381:B2 0.000200047
23 *39:32 *390:A 0.000109259
24 *39:32 *393:B1 0.000140179
25 *39:32 *398:A 4.0475e-05
26 *39:32 *404:C1 0.000250616
27 *39:32 *420:A1 0.000816937
28 *39:32 *422:A2 5.28764e-05
29 *39:32 *423:A1 8.01559e-05
30 *39:32 *429:A 1.21221e-05
31 *39:32 *430:A1 0.000572431
32 *39:32 *431:C 0.000497109
33 *39:32 *457:A 0
34 *39:32 *459:A 3.96263e-05
35 *39:32 *462:A 0.000328775
36 *39:32 *60:37 0.000437269
37 *39:32 *60:54 6.01908e-05
38 *39:32 *63:34 1.27405e-05
39 *39:32 *112:56 0.000230656
40 *39:32 *134:74 4.56429e-06
41 out[2] *39:32 0.00012373
42 out[3] *39:32 0.000182602
43 out[5] *39:32 1.97486e-05
44 *410:A2 *39:32 0.000179275
45 *417:B1 *417:A2 9.56017e-06
*RES
1 *414:X *39:32 39.0947 
2 *39:32 *415:A3 3.43 
3 *39:32 *417:A2 18.785 
*END

*D_NET *40 0.000847874
*CONN
*I *416:B I *D sky130_fd_sc_hd__or2_1
*I *415:X O *D sky130_fd_sc_hd__o31a_1
*CAP
1 *416:B 0.000170459
2 *415:X 0.000170459
3 *416:B *379:B1 0.000100428
4 *416:B *405:A1 2.49909e-05
5 *416:B *42:8 6.60907e-06
6 *416:B *119:10 1.80655e-05
7 *416:B *119:75 6.49729e-05
8 *416:A *416:B 0.000291889
*RES
1 *415:X *416:B 11.325 
*END

*D_NET *41 0.00303404
*CONN
*I *423:A1 I *D sky130_fd_sc_hd__a21o_1
*I *416:X O *D sky130_fd_sc_hd__or2_1
*CAP
1 *423:A1 0.000444356
2 *416:X 0.000444356
3 *423:A1 *368:A2 2.76356e-05
4 *423:A1 *368:C1 4.66108e-05
5 *423:A1 *381:B2 0.000202408
6 *423:A1 *405:A1 0.000373375
7 *423:A1 *420:A2 9.03508e-06
8 *423:A1 *420:B2 0.00055831
9 *423:A1 *423:B1 3.21174e-05
10 *423:A1 *431:C 0.000450222
11 *423:A1 *457:A 0.000204819
12 *423:A1 *60:88 0.000160635
13 *39:32 *423:A1 8.01559e-05
*RES
1 *416:X *423:A1 21.165 
*END

*D_NET *42 0.0137507
*CONN
*I *431:B I *D sky130_fd_sc_hd__or3_4
*I *430:A2 I *D sky130_fd_sc_hd__o21ai_1
*I *418:B I *D sky130_fd_sc_hd__nor2_1
*I *417:X O *D sky130_fd_sc_hd__o311a_4
*CAP
1 *431:B 0.00117668
2 *430:A2 0.000157678
3 *418:B 0.000534962
4 *417:X 0.000252834
5 *42:20 0.00136027
6 *42:8 0.00209714
7 *418:B *341:A1 0.000194295
8 *418:B *379:B1 0.000235771
9 *418:B *397:A3 0.000379299
10 *418:B *422:C1 0.000119641
11 *418:B *429:B 2.51989e-05
12 *418:B *63:34 0.000188877
13 *418:B *63:36 0.000340797
14 *418:B *65:34 1.29248e-05
15 *418:B *150:34 0
16 *418:B *155:52 0.000137202
17 *430:A2 *379:B1 4.3597e-05
18 *430:A2 *393:A2 1.7635e-05
19 *430:A2 *420:A2 3.92756e-05
20 *430:A2 *429:A 4.11718e-05
21 *430:A2 *429:B 3.47471e-05
22 *430:A2 *430:B1 4.66108e-05
23 *430:A2 *71:40 7.96104e-06
24 *431:B *354:B2 0.000597117
25 *431:B *358:A2 0.000598473
26 *431:B *369:B1_N 6.29833e-05
27 *431:B *379:A2 0.000525685
28 *431:B *382:A1 2.8531e-05
29 *431:B *391:B 0.000147829
30 *431:B *401:A 0.000127824
31 *431:B *411:A2 0.000107211
32 *431:B *431:C 1.20662e-05
33 *431:B *456:A 3.09774e-05
34 *431:B *88:19 4.41506e-05
35 *431:B *88:46 2.10214e-05
36 *431:B *121:61 0.000191228
37 *431:B *128:79 0.000822237
38 *431:B *131:64 0.00011742
39 *431:B *155:18 5.11148e-06
40 *42:8 *119:75 3.69766e-05
41 *42:8 *124:40 0.000371566
42 *42:20 *336:A 0.000103315
43 *42:20 *360:B 3.92756e-05
44 *42:20 *368:C1 0.000296425
45 *42:20 *379:B1 5.38786e-05
46 *42:20 *386:B1 0.00101907
47 *42:20 *422:A2 6.04302e-05
48 *42:20 *459:A 4.03791e-05
49 *42:20 *119:10 0.000181899
50 *42:20 *119:20 1.7635e-05
51 *42:20 *119:75 0.000126881
52 *42:20 *124:27 7.90693e-05
53 *42:20 *124:40 0.000258719
54 *42:20 *132:36 0.000174178
55 *416:A *42:8 0
56 *416:B *42:8 6.60907e-06
57 *417:B1 *42:8 0
*RES
1 *417:X *42:8 8.4225 
2 *42:8 *42:20 7.7712 
3 *42:20 *418:B 11.7606 
4 *42:20 *430:A2 5.65617 
5 *42:8 *431:B 13.2468 
*END

*D_NET *43 0.00450155
*CONN
*I *423:A2 I *D sky130_fd_sc_hd__a21o_1
*I *418:Y O *D sky130_fd_sc_hd__nor2_1
*CAP
1 *423:A2 0.00116546
2 *418:Y 0.00116546
3 *423:A2 *341:B2 9.99319e-06
4 *423:A2 *343:A1 8.1895e-05
5 *423:A2 *375:A 6.97073e-05
6 *423:A2 *381:B1 1.15549e-05
7 *423:A2 *391:B 0.000748111
8 *423:A2 *397:A3 8.02389e-05
9 *423:A2 *414:A2 0.000137921
10 *423:A2 *420:A2 8.38378e-05
11 *423:A2 *422:B1 0.000237321
12 *423:A2 *429:B 0.000236816
13 *423:A2 *431:C 1.38183e-05
14 *423:A2 *434:A3 1.79189e-05
15 *423:A2 *63:36 2.88357e-05
16 *423:A2 *78:10 7.96104e-06
17 *423:A2 *78:23 3.59531e-06
18 *423:A2 *78:33 1.07552e-05
19 *423:A2 *132:36 0.000110136
20 *423:A2 *155:38 0.000149955
21 *423:A2 *155:52 0.000130249
*RES
1 *418:Y *423:A2 14.4854 
*END

*D_NET *44 0.00784112
*CONN
*I *420:B2 I *D sky130_fd_sc_hd__o22a_1
*I *419:Y O *D sky130_fd_sc_hd__a21oi_1
*CAP
1 *420:B2 0.00178714
2 *419:Y 0.00178714
3 *420:B2 *336:A 4.49305e-05
4 *420:B2 *341:B2 0.000285679
5 *420:B2 *345:A 8.04519e-05
6 *420:B2 *347:C 7.39548e-05
7 *420:B2 *360:B 0.000142813
8 *420:B2 *401:B 0.000216929
9 *420:B2 *404:A1 0.000119242
10 *420:B2 *420:A2 5.78252e-05
11 *420:B2 *420:B1 4.66108e-05
12 *420:B2 *422:B1 1.88602e-05
13 *420:B2 *423:B1 0.000118081
14 *420:B2 *431:C 2.36828e-05
15 *420:B2 *434:B1 9.15115e-05
16 *420:B2 *457:A 0.000295467
17 *420:B2 *458:A 7.54285e-05
18 *420:B2 *459:A 5.9216e-05
19 *420:B2 *78:23 4.86336e-05
20 *420:B2 *78:70 8.58586e-05
21 *420:B2 *94:37 2.38397e-05
22 *420:B2 *126:44 0.000886434
23 *420:B2 *129:43 0.000142782
24 *420:B2 *129:72 0.000581816
25 *420:B2 *130:28 3.92756e-05
26 *420:B2 *134:106 2.82565e-05
27 *420:B2 *151:75 3.79278e-05
28 *420:B2 *152:58 2.38148e-05
29 *420:B2 *152:91 5.9216e-05
30 *423:A1 *420:B2 0.00055831
*RES
1 *419:Y *420:B2 27.3043 
*END

*D_NET *45 0.00411427
*CONN
*I *422:B1 I *D sky130_fd_sc_hd__a311o_1
*I *420:X O *D sky130_fd_sc_hd__o22a_1
*CAP
1 *422:B1 0.000908898
2 *420:X 0.000908898
3 *422:B1 *356:A3 7.47427e-05
4 *422:B1 *371:A2 9.66728e-05
5 *422:B1 *375:A 3.83194e-05
6 *422:B1 *376:A2 7.89917e-05
7 *422:B1 *379:B1 6.69608e-06
8 *422:B1 *381:B1 3.40883e-05
9 *422:B1 *397:A3 9.77731e-05
10 *422:B1 *422:A2 8.64421e-05
11 *422:B1 *423:B1 0.000415141
12 *422:B1 *63:34 5.05716e-06
13 *422:B1 *78:23 1.88602e-05
14 *422:B1 *78:33 0.00055421
15 *422:B1 *132:36 0.000110136
16 *422:B1 *148:38 4.66108e-05
17 *422:B1 *148:45 0.000119246
18 *422:B1 *150:34 0.000147983
19 *422:B1 *150:47 0.000109319
20 *420:B2 *422:B1 1.88602e-05
21 *423:A2 *422:B1 0.000237321
*RES
1 *420:X *422:B1 24.6903 
*END

*D_NET *46 0.00866794
*CONN
*I *422:C1 I *D sky130_fd_sc_hd__a311o_1
*I *421:Y O *D sky130_fd_sc_hd__nor2_1
*CAP
1 *422:C1 0.00180484
2 *421:Y 0.00180484
3 *422:C1 *343:A1 2.71847e-05
4 *422:C1 *378:B 4.43902e-05
5 *422:C1 *379:B1 0.000201594
6 *422:C1 *397:A3 0.000461128
7 *422:C1 *421:A 5.83121e-06
8 *422:C1 *421:B 1.56428e-05
9 *422:C1 *422:A1 2.99518e-06
10 *422:C1 *429:A 0.00182956
11 *422:C1 *432:A2 0
12 *422:C1 *60:54 0
13 *422:C1 *64:14 0.000996262
14 *422:C1 *64:51 0.000308047
15 *422:C1 *65:34 3.82072e-05
16 *422:C1 *136:22 0.000314445
17 *422:C1 *155:52 8.33829e-05
18 *407:B2 *422:C1 0.000505696
19 *418:B *422:C1 0.000119641
20 *444:A *422:C1 0.000104238
21 *451:A *422:C1 0
*RES
1 *421:Y *422:C1 27.5938 
*END

*D_NET *47 0.00344887
*CONN
*I *423:B1 I *D sky130_fd_sc_hd__a21o_1
*I *422:X O *D sky130_fd_sc_hd__a311o_1
*CAP
1 *423:B1 0.000747446
2 *422:X 0.000747446
3 *423:B1 *342:B1 0.000228608
4 *423:B1 *375:A 0.00034727
5 *423:B1 *393:A1 2.17185e-05
6 *423:B1 *420:A2 4.87551e-05
7 *423:B1 *422:A2 8.64566e-05
8 *423:B1 *430:A1 4.64109e-05
9 *423:B1 *457:A 0.00029792
10 *423:B1 *462:A 2.49909e-05
11 *423:B1 *60:54 0.000153421
12 *423:B1 *99:32 6.93077e-05
13 *423:B1 *148:45 3.53097e-05
14 *423:B1 *150:47 2.84757e-05